*
* Deltares, Delft3D-RGFGRID Version 4.17.03.7263, Jun  2 2009, 09:00:29
* File creation date: 2010-07-20, 22:29:21
*
Coordinate System = Spherical
     100      86
 0 0 0
 ETA=    1  -1.19370006879302206E+01  -1.16870003963821212E+01  -1.14370001048340217E+01  -1.11870006670595679E+01  -1.09370003755114702E+01
            -1.06870000839633708E+01  -1.04370006461889169E+01  -1.01870003546408174E+01  -9.93700006309271799E+00  -9.68700062531826589E+00
            -9.43700033377016645E+00  -9.18700004222206701E+00  -8.93700060444761490E+00  -8.68700031289951546E+00  -8.43700002135141602E+00
            -8.18700058357696214E+00  -7.93700029202886448E+00  -7.68700000048076326E+00  -7.43700056270631293E+00  -7.18700027115821349E+00
            -6.93700040649693683E+00  -6.68700054183566106E+00  -6.43700025028756162E+00  -6.18700038562628585E+00  -5.93700052096501008E+00
            -5.68700022941691063E+00  -5.43700036475563486E+00  -5.18700050009435820E+00  -4.93700020854625876E+00  -4.68700034388498299E+00
            -4.43700047922370722E+00   0.00000000000000000E+00   0.00000000000000000E+00   0.00000000000000000E+00   0.00000000000000000E+00
             0.00000000000000000E+00   0.00000000000000000E+00   0.00000000000000000E+00   0.00000000000000000E+00   0.00000000000000000E+00
             0.00000000000000000E+00   0.00000000000000000E+00   0.00000000000000000E+00   0.00000000000000000E+00   0.00000000000000000E+00
             0.00000000000000000E+00   0.00000000000000000E+00   0.00000000000000000E+00   0.00000000000000000E+00   0.00000000000000000E+00
             0.00000000000000000E+00   0.00000000000000000E+00   0.00000000000000000E+00   0.00000000000000000E+00   0.00000000000000000E+00
             0.00000000000000000E+00   0.00000000000000000E+00   0.00000000000000000E+00   0.00000000000000000E+00   0.00000000000000000E+00
             0.00000000000000000E+00   0.00000000000000000E+00   0.00000000000000000E+00   0.00000000000000000E+00   0.00000000000000000E+00
             0.00000000000000000E+00   0.00000000000000000E+00   0.00000000000000000E+00   0.00000000000000000E+00   0.00000000000000000E+00
             0.00000000000000000E+00   0.00000000000000000E+00   0.00000000000000000E+00   0.00000000000000000E+00   0.00000000000000000E+00
             0.00000000000000000E+00   0.00000000000000000E+00   0.00000000000000000E+00   0.00000000000000000E+00   0.00000000000000000E+00
             0.00000000000000000E+00   0.00000000000000000E+00   0.00000000000000000E+00   0.00000000000000000E+00   0.00000000000000000E+00
             0.00000000000000000E+00   0.00000000000000000E+00   0.00000000000000000E+00   0.00000000000000000E+00   0.00000000000000000E+00
             0.00000000000000000E+00   0.00000000000000000E+00   0.00000000000000000E+00   0.00000000000000000E+00   0.00000000000000000E+00
             0.00000000000000000E+00   0.00000000000000000E+00   0.00000000000000000E+00   0.00000000000000000E+00   0.00000000000000000E+00
 ETA=    2  -1.19370006879302206E+01  -1.16870003963821212E+01  -1.14370001048340217E+01  -1.11870006670595679E+01  -1.09370003755114702E+01
            -1.06870000839633708E+01  -1.04370006461889169E+01  -1.01870003546408174E+01  -9.93700006309271799E+00  -9.68700062531826589E+00
            -9.43700033377016645E+00  -9.18700004222206701E+00  -8.93700060444761490E+00  -8.68700031289951546E+00  -8.43700002135141602E+00
            -8.18700058357696214E+00  -7.93700029202886448E+00  -7.68700000048076326E+00  -7.43700056270631293E+00  -7.18700027115821349E+00
            -6.93700040649693683E+00  -6.68700054183566106E+00  -6.43700025028756162E+00  -6.18700038562628585E+00  -5.93700052096501008E+00
            -5.68700022941691063E+00  -5.43700036475563486E+00  -5.18700050009435820E+00  -4.93700020854625876E+00  -4.68700034388498299E+00
            -4.43700047922370722E+00   0.00000000000000000E+00   0.00000000000000000E+00   0.00000000000000000E+00   0.00000000000000000E+00
             0.00000000000000000E+00   0.00000000000000000E+00   0.00000000000000000E+00   0.00000000000000000E+00   0.00000000000000000E+00
             0.00000000000000000E+00   0.00000000000000000E+00   0.00000000000000000E+00   0.00000000000000000E+00   0.00000000000000000E+00
             0.00000000000000000E+00   0.00000000000000000E+00   0.00000000000000000E+00   0.00000000000000000E+00   0.00000000000000000E+00
             0.00000000000000000E+00   0.00000000000000000E+00   0.00000000000000000E+00   0.00000000000000000E+00   0.00000000000000000E+00
             0.00000000000000000E+00   0.00000000000000000E+00   0.00000000000000000E+00   0.00000000000000000E+00   0.00000000000000000E+00
             0.00000000000000000E+00   0.00000000000000000E+00   0.00000000000000000E+00   0.00000000000000000E+00   0.00000000000000000E+00
             0.00000000000000000E+00   0.00000000000000000E+00   0.00000000000000000E+00   0.00000000000000000E+00   0.00000000000000000E+00
             0.00000000000000000E+00   0.00000000000000000E+00   0.00000000000000000E+00   0.00000000000000000E+00   0.00000000000000000E+00
             0.00000000000000000E+00   0.00000000000000000E+00   0.00000000000000000E+00   0.00000000000000000E+00   0.00000000000000000E+00
             0.00000000000000000E+00   0.00000000000000000E+00   0.00000000000000000E+00   0.00000000000000000E+00   0.00000000000000000E+00
             0.00000000000000000E+00   0.00000000000000000E+00   0.00000000000000000E+00   0.00000000000000000E+00   0.00000000000000000E+00
             0.00000000000000000E+00   0.00000000000000000E+00   0.00000000000000000E+00   0.00000000000000000E+00   0.00000000000000000E+00
             0.00000000000000000E+00   0.00000000000000000E+00   0.00000000000000000E+00   0.00000000000000000E+00   0.00000000000000000E+00
 ETA=    3  -1.19370006879302206E+01  -1.16870003963821212E+01  -1.14370001048340217E+01  -1.11870006670595679E+01  -1.09370003755114702E+01
            -1.06870000839633708E+01  -1.04370006461889169E+01  -1.01870003546408174E+01  -9.93700006309271799E+00  -9.68700062531826589E+00
            -9.43700033377016645E+00  -9.18700004222206701E+00  -8.93700060444761490E+00  -8.68700031289951546E+00  -8.43700002135141602E+00
            -8.18700058357696214E+00  -7.93700029202886448E+00  -7.68700000048076326E+00  -7.43700056270631293E+00  -7.18700027115821349E+00
            -6.93700040649693683E+00  -6.68700054183566106E+00  -6.43700025028756162E+00  -6.18700038562628585E+00  -5.93700052096501008E+00
            -5.68700022941691063E+00  -5.43700036475563486E+00  -5.18700050009435820E+00  -4.93700020854625876E+00  -4.68700034388498299E+00
            -4.43700047922370722E+00   0.00000000000000000E+00   0.00000000000000000E+00   0.00000000000000000E+00   0.00000000000000000E+00
             0.00000000000000000E+00   0.00000000000000000E+00   0.00000000000000000E+00   0.00000000000000000E+00   0.00000000000000000E+00
             0.00000000000000000E+00   0.00000000000000000E+00   0.00000000000000000E+00   0.00000000000000000E+00   0.00000000000000000E+00
             0.00000000000000000E+00   0.00000000000000000E+00   0.00000000000000000E+00   0.00000000000000000E+00   0.00000000000000000E+00
             0.00000000000000000E+00   0.00000000000000000E+00   0.00000000000000000E+00   0.00000000000000000E+00   0.00000000000000000E+00
             0.00000000000000000E+00   0.00000000000000000E+00   0.00000000000000000E+00   0.00000000000000000E+00   0.00000000000000000E+00
             0.00000000000000000E+00   0.00000000000000000E+00   0.00000000000000000E+00   0.00000000000000000E+00   0.00000000000000000E+00
             0.00000000000000000E+00   0.00000000000000000E+00   0.00000000000000000E+00   0.00000000000000000E+00   0.00000000000000000E+00
             0.00000000000000000E+00   0.00000000000000000E+00   0.00000000000000000E+00   0.00000000000000000E+00   0.00000000000000000E+00
             0.00000000000000000E+00   0.00000000000000000E+00   0.00000000000000000E+00   0.00000000000000000E+00   0.00000000000000000E+00
             0.00000000000000000E+00   0.00000000000000000E+00   0.00000000000000000E+00   0.00000000000000000E+00   0.00000000000000000E+00
             0.00000000000000000E+00   0.00000000000000000E+00   0.00000000000000000E+00   0.00000000000000000E+00   0.00000000000000000E+00
             0.00000000000000000E+00   0.00000000000000000E+00   0.00000000000000000E+00   0.00000000000000000E+00   0.00000000000000000E+00
             0.00000000000000000E+00   0.00000000000000000E+00   0.00000000000000000E+00   0.00000000000000000E+00   0.00000000000000000E+00
 ETA=    4  -1.19370006879302206E+01  -1.16870003963821212E+01  -1.14370001048340217E+01  -1.11870006670595679E+01  -1.09370003755114702E+01
            -1.06870000839633708E+01  -1.04370006461889169E+01  -1.01870003546408174E+01  -9.93700006309271799E+00  -9.68700062531826589E+00
            -9.43700033377016645E+00  -9.18700004222206701E+00  -8.93700060444761490E+00  -8.68700031289951546E+00  -8.43700002135141602E+00
            -8.18700058357696214E+00  -7.93700029202886448E+00  -7.68700000048076326E+00  -7.43700056270631293E+00  -7.18700027115821349E+00
            -6.93700040649693683E+00  -6.68700054183566106E+00  -6.43700025028756162E+00  -6.18700038562628585E+00  -5.93700052096501008E+00
            -5.68700022941691063E+00  -5.43700036475563486E+00  -5.18700050009435820E+00  -4.93700020854625876E+00  -4.68700034388498299E+00
             0.00000000000000000E+00   0.00000000000000000E+00   0.00000000000000000E+00   0.00000000000000000E+00   0.00000000000000000E+00
             0.00000000000000000E+00   0.00000000000000000E+00  -2.68700035937771586E+00  -2.43700049471644009E+00   0.00000000000000000E+00
             0.00000000000000000E+00   0.00000000000000000E+00   0.00000000000000000E+00   0.00000000000000000E+00   0.00000000000000000E+00
             0.00000000000000000E+00   0.00000000000000000E+00   0.00000000000000000E+00   0.00000000000000000E+00   0.00000000000000000E+00
             0.00000000000000000E+00   0.00000000000000000E+00   0.00000000000000000E+00   0.00000000000000000E+00   0.00000000000000000E+00
             0.00000000000000000E+00   0.00000000000000000E+00   0.00000000000000000E+00   0.00000000000000000E+00   0.00000000000000000E+00
             0.00000000000000000E+00   0.00000000000000000E+00   0.00000000000000000E+00   0.00000000000000000E+00   0.00000000000000000E+00
             0.00000000000000000E+00   0.00000000000000000E+00   0.00000000000000000E+00   0.00000000000000000E+00   0.00000000000000000E+00
             0.00000000000000000E+00   0.00000000000000000E+00   0.00000000000000000E+00   0.00000000000000000E+00   0.00000000000000000E+00
             0.00000000000000000E+00   0.00000000000000000E+00   0.00000000000000000E+00   0.00000000000000000E+00   0.00000000000000000E+00
             0.00000000000000000E+00   0.00000000000000000E+00   0.00000000000000000E+00   0.00000000000000000E+00   0.00000000000000000E+00
             0.00000000000000000E+00   0.00000000000000000E+00   0.00000000000000000E+00   0.00000000000000000E+00   0.00000000000000000E+00
             0.00000000000000000E+00   0.00000000000000000E+00   0.00000000000000000E+00   0.00000000000000000E+00   0.00000000000000000E+00
             0.00000000000000000E+00   0.00000000000000000E+00   0.00000000000000000E+00   0.00000000000000000E+00   0.00000000000000000E+00
 ETA=    5  -1.19370006879302206E+01  -1.16870003963821212E+01  -1.14370001048340217E+01  -1.11870006670595679E+01  -1.09370003755114702E+01
            -1.06870000839633708E+01  -1.04370006461889169E+01  -1.01870003546408174E+01  -9.93700006309271799E+00  -9.68700062531826589E+00
            -9.43700033377016645E+00  -9.18700004222206701E+00  -8.93700060444761490E+00  -8.68700031289951546E+00  -8.43700002135141602E+00
            -8.18700058357696214E+00  -7.93700029202886448E+00  -7.68700000048076326E+00  -7.43700056270631293E+00  -7.18700027115821349E+00
            -6.93700040649693683E+00  -6.68700054183566106E+00  -6.43700025028756162E+00  -6.18700038562628585E+00  -5.93700052096501008E+00
            -5.68700022941691063E+00  -5.43700036475563486E+00  -5.18700050009435820E+00  -4.93700020854625876E+00  -4.68700034388498299E+00
            -4.43700047922370722E+00  -4.18700018767560778E+00  -3.93700032301433200E+00  -3.68700045835305534E+00  -3.43700038024836729E+00
             0.00000000000000000E+00  -2.93700043748240391E+00  -2.68700035937771586E+00  -2.43700049471644009E+00  -2.18700041661175248E+00
            -1.93700033850706488E+00  -1.68700036712408297E+00  -1.43700039574110106E+00   0.00000000000000000E+00   0.00000000000000000E+00
             0.00000000000000000E+00   0.00000000000000000E+00   0.00000000000000000E+00   0.00000000000000000E+00   0.00000000000000000E+00
             0.00000000000000000E+00   0.00000000000000000E+00   0.00000000000000000E+00   0.00000000000000000E+00   0.00000000000000000E+00
             0.00000000000000000E+00   0.00000000000000000E+00   0.00000000000000000E+00   0.00000000000000000E+00   0.00000000000000000E+00
             0.00000000000000000E+00   0.00000000000000000E+00   0.00000000000000000E+00   0.00000000000000000E+00   0.00000000000000000E+00
             0.00000000000000000E+00   0.00000000000000000E+00   0.00000000000000000E+00   0.00000000000000000E+00   0.00000000000000000E+00
             0.00000000000000000E+00   0.00000000000000000E+00   0.00000000000000000E+00   0.00000000000000000E+00   0.00000000000000000E+00
             0.00000000000000000E+00   0.00000000000000000E+00   0.00000000000000000E+00   0.00000000000000000E+00   0.00000000000000000E+00
             0.00000000000000000E+00   0.00000000000000000E+00   0.00000000000000000E+00   0.00000000000000000E+00   0.00000000000000000E+00
             0.00000000000000000E+00   0.00000000000000000E+00   0.00000000000000000E+00   0.00000000000000000E+00   0.00000000000000000E+00
             0.00000000000000000E+00   0.00000000000000000E+00   0.00000000000000000E+00   0.00000000000000000E+00   0.00000000000000000E+00
             0.00000000000000000E+00   0.00000000000000000E+00   0.00000000000000000E+00   0.00000000000000000E+00   0.00000000000000000E+00
 ETA=    6  -1.19370006879302206E+01  -1.16870003963821212E+01  -1.14370001048340217E+01  -1.11870006670595679E+01  -1.09370003755114702E+01
            -1.06870000839633708E+01  -1.04370006461889169E+01  -1.01870003546408174E+01  -9.93700006309271799E+00  -9.68700062531826589E+00
            -9.43700033377016645E+00  -9.18700004222206701E+00  -8.93700060444761490E+00  -8.68700031289951546E+00  -8.43700002135141602E+00
            -8.18700058357696214E+00  -7.93700029202886448E+00  -7.68700000048076326E+00  -7.43700056270631293E+00  -7.18700027115821349E+00
            -6.93700040649693683E+00  -6.68700054183566106E+00  -6.43700025028756162E+00  -6.18700038562628585E+00  -5.93700052096501008E+00
            -5.68700022941691063E+00  -5.43700036475563486E+00  -5.18700050009435820E+00  -4.93700020854625876E+00  -4.68700034388498299E+00
            -4.43700047922370722E+00  -4.18700018767560778E+00  -3.93700032301433200E+00  -3.68700045835305534E+00  -3.43700038024836729E+00
            -3.18700030214367969E+00  -2.93700043748240391E+00  -2.68700035937771586E+00  -2.43700049471644009E+00  -2.18700041661175248E+00
            -1.93700033850706488E+00  -1.68700036712408297E+00  -1.43700039574110106E+00   0.00000000000000000E+00   0.00000000000000000E+00
             0.00000000000000000E+00   0.00000000000000000E+00   0.00000000000000000E+00   0.00000000000000000E+00   0.00000000000000000E+00
             0.00000000000000000E+00   0.00000000000000000E+00   0.00000000000000000E+00   0.00000000000000000E+00   0.00000000000000000E+00
             0.00000000000000000E+00   0.00000000000000000E+00   0.00000000000000000E+00   0.00000000000000000E+00   0.00000000000000000E+00
             0.00000000000000000E+00   0.00000000000000000E+00   0.00000000000000000E+00   0.00000000000000000E+00   0.00000000000000000E+00
             0.00000000000000000E+00   0.00000000000000000E+00   0.00000000000000000E+00   0.00000000000000000E+00   0.00000000000000000E+00
             0.00000000000000000E+00   0.00000000000000000E+00   0.00000000000000000E+00   0.00000000000000000E+00   0.00000000000000000E+00
             0.00000000000000000E+00   0.00000000000000000E+00   0.00000000000000000E+00   0.00000000000000000E+00   0.00000000000000000E+00
             0.00000000000000000E+00   0.00000000000000000E+00   0.00000000000000000E+00   0.00000000000000000E+00   0.00000000000000000E+00
             0.00000000000000000E+00   0.00000000000000000E+00   0.00000000000000000E+00   0.00000000000000000E+00   0.00000000000000000E+00
             0.00000000000000000E+00   0.00000000000000000E+00   0.00000000000000000E+00   0.00000000000000000E+00   0.00000000000000000E+00
             0.00000000000000000E+00   0.00000000000000000E+00   0.00000000000000000E+00   0.00000000000000000E+00   0.00000000000000000E+00
 ETA=    7  -1.19370006879302206E+01  -1.16870003963821212E+01  -1.14370001048340217E+01  -1.11870006670595679E+01  -1.09370003755114702E+01
            -1.06870000839633708E+01  -1.04370006461889169E+01  -1.01870003546408174E+01  -9.93700006309271799E+00  -9.68700062531826589E+00
            -9.43700033377016645E+00  -9.18700004222206701E+00  -8.93700060444761490E+00  -8.68700031289951546E+00  -8.43700002135141602E+00
            -8.18700058357696214E+00  -7.93700029202886448E+00  -7.68700000048076326E+00  -7.43700056270631293E+00  -7.18700027115821349E+00
            -6.93700040649693683E+00  -6.68700054183566106E+00  -6.43700025028756162E+00  -6.18700038562628585E+00  -5.93700052096501008E+00
            -5.68700022941691063E+00  -5.43700036475563486E+00  -5.18700050009435820E+00  -4.93700020854625876E+00  -4.68700034388498299E+00
            -4.43700047922370722E+00  -4.18700018767560778E+00  -3.93700032301433200E+00  -3.68700045835305534E+00  -3.43700038024836729E+00
            -3.18700030214367969E+00  -2.93700043748240391E+00  -2.68700035937771586E+00  -2.43700049471644009E+00  -2.18700041661175248E+00
            -1.93700033850706488E+00  -1.68700036712408297E+00  -1.43700039574110106E+00   0.00000000000000000E+00   0.00000000000000000E+00
             0.00000000000000000E+00   0.00000000000000000E+00   0.00000000000000000E+00   0.00000000000000000E+00   0.00000000000000000E+00
             0.00000000000000000E+00   0.00000000000000000E+00   0.00000000000000000E+00   0.00000000000000000E+00   0.00000000000000000E+00
             0.00000000000000000E+00   0.00000000000000000E+00   0.00000000000000000E+00   0.00000000000000000E+00   0.00000000000000000E+00
             0.00000000000000000E+00   0.00000000000000000E+00   0.00000000000000000E+00   0.00000000000000000E+00   0.00000000000000000E+00
             0.00000000000000000E+00   0.00000000000000000E+00   0.00000000000000000E+00   0.00000000000000000E+00   0.00000000000000000E+00
             0.00000000000000000E+00   0.00000000000000000E+00   0.00000000000000000E+00   0.00000000000000000E+00   0.00000000000000000E+00
             0.00000000000000000E+00   0.00000000000000000E+00   0.00000000000000000E+00   0.00000000000000000E+00   0.00000000000000000E+00
             0.00000000000000000E+00   0.00000000000000000E+00   0.00000000000000000E+00   0.00000000000000000E+00   0.00000000000000000E+00
             0.00000000000000000E+00   0.00000000000000000E+00   0.00000000000000000E+00   0.00000000000000000E+00   0.00000000000000000E+00
             0.00000000000000000E+00   0.00000000000000000E+00   0.00000000000000000E+00   0.00000000000000000E+00   0.00000000000000000E+00
             0.00000000000000000E+00   0.00000000000000000E+00   0.00000000000000000E+00   0.00000000000000000E+00   0.00000000000000000E+00
 ETA=    8  -1.19370006879302206E+01  -1.16870003963821212E+01  -1.14370001048340217E+01  -1.11870006670595679E+01  -1.09370003755114702E+01
            -1.06870000839633708E+01  -1.04370006461889169E+01  -1.01870003546408174E+01  -9.93700006309271799E+00  -9.68700062531826589E+00
            -9.43700033377016645E+00  -9.18700004222206701E+00  -8.93700060444761490E+00  -8.68700031289951546E+00  -8.43700002135141602E+00
            -8.18700058357696214E+00  -7.93700029202886448E+00  -7.68700000048076326E+00  -7.43700056270631293E+00  -7.18700027115821349E+00
            -6.93700040649693683E+00  -6.68700054183566106E+00  -6.43700025028756162E+00  -6.18700038562628585E+00  -5.93700052096501008E+00
            -5.68700022941691063E+00  -5.43700036475563486E+00  -5.18700050009435820E+00  -4.93700020854625876E+00  -4.68700034388498299E+00
            -4.43700047922370722E+00  -4.18700018767560778E+00  -3.93700032301433200E+00  -3.68700045835305534E+00  -3.43700038024836729E+00
            -3.18700030214367969E+00  -2.93700043748240391E+00  -2.68700035937771586E+00  -2.43700049471644009E+00  -2.18700041661175248E+00
            -1.93700033850706488E+00  -1.68700036712408297E+00  -1.43700039574110106E+00   0.00000000000000000E+00   0.00000000000000000E+00
             0.00000000000000000E+00   0.00000000000000000E+00   0.00000000000000000E+00   0.00000000000000000E+00   0.00000000000000000E+00
             0.00000000000000000E+00   0.00000000000000000E+00   0.00000000000000000E+00   0.00000000000000000E+00   0.00000000000000000E+00
             0.00000000000000000E+00   0.00000000000000000E+00   0.00000000000000000E+00   0.00000000000000000E+00   0.00000000000000000E+00
             0.00000000000000000E+00   0.00000000000000000E+00   0.00000000000000000E+00   0.00000000000000000E+00   0.00000000000000000E+00
             0.00000000000000000E+00   0.00000000000000000E+00   0.00000000000000000E+00   0.00000000000000000E+00   0.00000000000000000E+00
             0.00000000000000000E+00   0.00000000000000000E+00   0.00000000000000000E+00   0.00000000000000000E+00   0.00000000000000000E+00
             0.00000000000000000E+00   0.00000000000000000E+00   0.00000000000000000E+00   0.00000000000000000E+00   0.00000000000000000E+00
             0.00000000000000000E+00   0.00000000000000000E+00   0.00000000000000000E+00   0.00000000000000000E+00   0.00000000000000000E+00
             0.00000000000000000E+00   0.00000000000000000E+00   0.00000000000000000E+00   0.00000000000000000E+00   0.00000000000000000E+00
             0.00000000000000000E+00   0.00000000000000000E+00   0.00000000000000000E+00   0.00000000000000000E+00   0.00000000000000000E+00
             0.00000000000000000E+00   0.00000000000000000E+00   0.00000000000000000E+00   0.00000000000000000E+00   0.00000000000000000E+00
 ETA=    9  -1.19370006879302206E+01  -1.16870003963821212E+01  -1.14370001048340217E+01  -1.11870006670595679E+01  -1.09370003755114702E+01
            -1.06870000839633708E+01  -1.04370006461889169E+01  -1.01870003546408174E+01  -9.93700006309271799E+00  -9.68700062531826589E+00
            -9.43700033377016645E+00  -9.18700004222206701E+00  -8.93700060444761490E+00  -8.68700031289951546E+00  -8.43700002135141602E+00
            -8.18700058357696214E+00  -7.93700029202886448E+00  -7.68700000048076326E+00  -7.43700056270631293E+00  -7.18700027115821349E+00
            -6.93700040649693683E+00  -6.68700054183566106E+00  -6.43700025028756162E+00  -6.18700038562628585E+00  -5.93700052096501008E+00
            -5.68700022941691063E+00  -5.43700036475563486E+00  -5.18700050009435820E+00  -4.93700020854625876E+00  -4.68700034388498299E+00
            -4.43700047922370722E+00  -4.18700018767560778E+00  -3.93700032301433200E+00  -3.68700045835305534E+00  -3.43700038024836729E+00
            -3.18700030214367969E+00  -2.93700043748240391E+00  -2.68700035937771586E+00  -2.43700049471644009E+00  -2.18700041661175248E+00
            -1.93700033850706488E+00  -1.68700036712408297E+00   0.00000000000000000E+00  -1.18700042435811937E+00  -9.37000452975137454E-01
            -6.87000428231302696E-01  -4.37000430167894360E-01  -1.87000432104486025E-01   6.29995726290289437E-02   3.12999564022330645E-01
             0.00000000000000000E+00   0.00000000000000000E+00   0.00000000000000000E+00   0.00000000000000000E+00   0.00000000000000000E+00
             0.00000000000000000E+00   0.00000000000000000E+00   0.00000000000000000E+00   0.00000000000000000E+00   0.00000000000000000E+00
             0.00000000000000000E+00   0.00000000000000000E+00   0.00000000000000000E+00   0.00000000000000000E+00   0.00000000000000000E+00
             0.00000000000000000E+00   0.00000000000000000E+00   0.00000000000000000E+00   0.00000000000000000E+00   0.00000000000000000E+00
             0.00000000000000000E+00   0.00000000000000000E+00   0.00000000000000000E+00   0.00000000000000000E+00   0.00000000000000000E+00
             0.00000000000000000E+00   0.00000000000000000E+00   0.00000000000000000E+00   0.00000000000000000E+00   0.00000000000000000E+00
             0.00000000000000000E+00   0.00000000000000000E+00   0.00000000000000000E+00   0.00000000000000000E+00   0.00000000000000000E+00
             0.00000000000000000E+00   0.00000000000000000E+00   0.00000000000000000E+00   0.00000000000000000E+00   0.00000000000000000E+00
             0.00000000000000000E+00   0.00000000000000000E+00   0.00000000000000000E+00   0.00000000000000000E+00   0.00000000000000000E+00
             0.00000000000000000E+00   0.00000000000000000E+00   0.00000000000000000E+00   0.00000000000000000E+00   0.00000000000000000E+00
 ETA=   10  -1.19370006879302206E+01  -1.16870003963821212E+01  -1.14370001048340217E+01  -1.11870006670595679E+01  -1.09370003755114702E+01
            -1.06870000839633708E+01  -1.04370006461889169E+01  -1.01870003546408174E+01  -9.93700006309271799E+00  -9.68700062531826589E+00
            -9.43700033377016645E+00  -9.18700004222206701E+00  -8.93700060444761490E+00  -8.68700031289951546E+00  -8.43700002135141602E+00
            -8.18700058357696214E+00  -7.93700029202886448E+00  -7.68700000048076326E+00  -7.43700056270631293E+00  -7.18700027115821349E+00
            -6.93700040649693683E+00  -6.68700054183566106E+00  -6.43700025028756162E+00  -6.18700038562628585E+00  -5.93700052096501008E+00
            -5.68700022941691063E+00  -5.43700036475563486E+00  -5.18700050009435820E+00  -4.93700020854625876E+00  -4.68700034388498299E+00
            -4.43700047922370722E+00  -4.18700018767560778E+00  -3.93700032301433200E+00  -3.68700045835305534E+00  -3.43700038024836729E+00
            -3.18700030214367969E+00  -2.93700043748240391E+00  -2.68700035937771586E+00  -2.43700049471644009E+00  -2.18700041661175248E+00
            -1.93700033850706488E+00  -1.68700036712408297E+00   0.00000000000000000E+00  -1.18700042435811937E+00  -9.37000452975137454E-01
            -6.87000428231302696E-01  -4.37000430167894360E-01  -1.87000432104486025E-01   6.29995726290289437E-02   3.12999564022330645E-01
             0.00000000000000000E+00   0.00000000000000000E+00   0.00000000000000000E+00   0.00000000000000000E+00   0.00000000000000000E+00
             0.00000000000000000E+00   0.00000000000000000E+00   0.00000000000000000E+00   0.00000000000000000E+00   0.00000000000000000E+00
             0.00000000000000000E+00   0.00000000000000000E+00   0.00000000000000000E+00   0.00000000000000000E+00   0.00000000000000000E+00
             0.00000000000000000E+00   0.00000000000000000E+00   0.00000000000000000E+00   0.00000000000000000E+00   0.00000000000000000E+00
             0.00000000000000000E+00   0.00000000000000000E+00   0.00000000000000000E+00   0.00000000000000000E+00   0.00000000000000000E+00
             0.00000000000000000E+00   0.00000000000000000E+00   0.00000000000000000E+00   0.00000000000000000E+00   0.00000000000000000E+00
             0.00000000000000000E+00   0.00000000000000000E+00   0.00000000000000000E+00   0.00000000000000000E+00   0.00000000000000000E+00
             0.00000000000000000E+00   0.00000000000000000E+00   0.00000000000000000E+00   0.00000000000000000E+00   0.00000000000000000E+00
             0.00000000000000000E+00   0.00000000000000000E+00   0.00000000000000000E+00   0.00000000000000000E+00   0.00000000000000000E+00
             0.00000000000000000E+00   0.00000000000000000E+00   0.00000000000000000E+00   0.00000000000000000E+00   0.00000000000000000E+00
 ETA=   11  -1.19370006879302206E+01  -1.16870003963821212E+01  -1.14370001048340217E+01  -1.11870006670595679E+01  -1.09370003755114702E+01
            -1.06870000839633708E+01  -1.04370006461889169E+01  -1.01870003546408174E+01  -9.93700006309271799E+00  -9.68700062531826589E+00
            -9.43700033377016645E+00  -9.18700004222206701E+00  -8.93700060444761490E+00  -8.68700031289951546E+00  -8.43700002135141602E+00
            -8.18700058357696214E+00  -7.93700029202886448E+00  -7.68700000048076326E+00  -7.43700056270631293E+00  -7.18700027115821349E+00
            -6.93700040649693683E+00  -6.68700054183566106E+00  -6.43700025028756162E+00  -6.18700038562628585E+00  -5.93700052096501008E+00
            -5.68700022941691063E+00  -5.43700036475563486E+00  -5.18700050009435820E+00  -4.93700020854625876E+00  -4.68700034388498299E+00
            -4.43700047922370722E+00  -4.18700018767560778E+00  -3.93700032301433200E+00  -3.68700045835305534E+00  -3.43700038024836729E+00
            -3.18700030214367969E+00  -2.93700043748240391E+00  -2.68700035937771586E+00  -2.43700049471644009E+00  -2.18700041661175248E+00
            -1.93700033850706488E+00  -1.68700036712408297E+00  -1.43700039574110106E+00  -1.18700042435811937E+00  -9.37000452975137454E-01
            -6.87000428231302696E-01  -4.37000430167894360E-01  -1.87000432104486025E-01   6.29995726290289437E-02   3.12999564022330645E-01
             0.00000000000000000E+00   0.00000000000000000E+00   0.00000000000000000E+00   0.00000000000000000E+00   0.00000000000000000E+00
             0.00000000000000000E+00   0.00000000000000000E+00   0.00000000000000000E+00   0.00000000000000000E+00   0.00000000000000000E+00
             0.00000000000000000E+00   0.00000000000000000E+00   0.00000000000000000E+00   0.00000000000000000E+00   0.00000000000000000E+00
             0.00000000000000000E+00   0.00000000000000000E+00   0.00000000000000000E+00   0.00000000000000000E+00   0.00000000000000000E+00
             0.00000000000000000E+00   0.00000000000000000E+00   0.00000000000000000E+00   0.00000000000000000E+00   0.00000000000000000E+00
             0.00000000000000000E+00   0.00000000000000000E+00   0.00000000000000000E+00   0.00000000000000000E+00   0.00000000000000000E+00
             0.00000000000000000E+00   0.00000000000000000E+00   0.00000000000000000E+00   0.00000000000000000E+00   0.00000000000000000E+00
             0.00000000000000000E+00   0.00000000000000000E+00   0.00000000000000000E+00   0.00000000000000000E+00   0.00000000000000000E+00
             0.00000000000000000E+00   0.00000000000000000E+00   0.00000000000000000E+00   0.00000000000000000E+00   0.00000000000000000E+00
             0.00000000000000000E+00   0.00000000000000000E+00   0.00000000000000000E+00   0.00000000000000000E+00   0.00000000000000000E+00
 ETA=   12  -1.19370006879302206E+01  -1.16870003963821212E+01  -1.14370001048340217E+01  -1.11870006670595679E+01  -1.09370003755114702E+01
            -1.06870000839633708E+01  -1.04370006461889169E+01  -1.01870003546408174E+01  -9.93700006309271799E+00  -9.68700062531826589E+00
            -9.43700033377016645E+00  -9.18700004222206701E+00  -8.93700060444761490E+00  -8.68700031289951546E+00  -8.43700002135141602E+00
            -8.18700058357696214E+00  -7.93700029202886448E+00  -7.68700000048076326E+00  -7.43700056270631293E+00  -7.18700027115821349E+00
            -6.93700040649693683E+00  -6.68700054183566106E+00  -6.43700025028756162E+00  -6.18700038562628585E+00  -5.93700052096501008E+00
            -5.68700022941691063E+00  -5.43700036475563486E+00  -5.18700050009435820E+00  -4.93700020854625876E+00  -4.68700034388498299E+00
            -4.43700047922370722E+00  -4.18700018767560778E+00  -3.93700032301433200E+00  -3.68700045835305534E+00  -3.43700038024836729E+00
            -3.18700030214367969E+00  -2.93700043748240391E+00  -2.68700035937771586E+00  -2.43700049471644009E+00  -2.18700041661175248E+00
            -1.93700033850706488E+00  -1.68700036712408297E+00  -1.43700039574110106E+00  -1.18700042435811937E+00  -9.37000452975137454E-01
            -6.87000428231302696E-01  -4.37000430167894360E-01  -1.87000432104486025E-01   6.29995726290289437E-02   3.12999564022330645E-01
             5.62999588766165404E-01   8.12999560149147316E-01   1.06299953153212901E+00   0.00000000000000000E+00   0.00000000000000000E+00
             0.00000000000000000E+00   0.00000000000000000E+00   0.00000000000000000E+00   0.00000000000000000E+00   0.00000000000000000E+00
             0.00000000000000000E+00   0.00000000000000000E+00   0.00000000000000000E+00   0.00000000000000000E+00   0.00000000000000000E+00
             0.00000000000000000E+00   0.00000000000000000E+00   0.00000000000000000E+00   0.00000000000000000E+00   0.00000000000000000E+00
             0.00000000000000000E+00   0.00000000000000000E+00   0.00000000000000000E+00   0.00000000000000000E+00   0.00000000000000000E+00
             0.00000000000000000E+00   0.00000000000000000E+00   0.00000000000000000E+00   0.00000000000000000E+00   0.00000000000000000E+00
             0.00000000000000000E+00   0.00000000000000000E+00   0.00000000000000000E+00   0.00000000000000000E+00   0.00000000000000000E+00
             0.00000000000000000E+00   0.00000000000000000E+00   0.00000000000000000E+00   0.00000000000000000E+00   0.00000000000000000E+00
             0.00000000000000000E+00   0.00000000000000000E+00   0.00000000000000000E+00   0.00000000000000000E+00   0.00000000000000000E+00
             0.00000000000000000E+00   0.00000000000000000E+00   0.00000000000000000E+00   0.00000000000000000E+00   0.00000000000000000E+00
 ETA=   13  -1.19370006879302206E+01  -1.16870003963821212E+01  -1.14370001048340217E+01  -1.11870006670595679E+01  -1.09370003755114702E+01
            -1.06870000839633708E+01  -1.04370006461889169E+01  -1.01870003546408174E+01  -9.93700006309271799E+00  -9.68700062531826589E+00
            -9.43700033377016645E+00  -9.18700004222206701E+00  -8.93700060444761490E+00  -8.68700031289951546E+00  -8.43700002135141602E+00
            -8.18700058357696214E+00  -7.93700029202886448E+00  -7.68700000048076326E+00  -7.43700056270631293E+00  -7.18700027115821349E+00
            -6.93700040649693683E+00  -6.68700054183566106E+00  -6.43700025028756162E+00  -6.18700038562628585E+00  -5.93700052096501008E+00
            -5.68700022941691063E+00  -5.43700036475563486E+00  -5.18700050009435820E+00  -4.93700020854625876E+00  -4.68700034388498299E+00
            -4.43700047922370722E+00  -4.18700018767560778E+00  -3.93700032301433200E+00  -3.68700045835305534E+00  -3.43700038024836729E+00
            -3.18700030214367969E+00  -2.93700043748240391E+00  -2.68700035937771586E+00  -2.43700049471644009E+00  -2.18700041661175248E+00
            -1.93700033850706488E+00  -1.68700036712408297E+00  -1.43700039574110106E+00  -1.18700042435811937E+00  -9.37000452975137454E-01
            -6.87000428231302696E-01  -4.37000430167894360E-01  -1.87000432104486025E-01   6.29995726290289437E-02   3.12999564022330645E-01
             5.62999588766165404E-01   8.12999560149147316E-01   1.06299953153212901E+00   1.31299960963681683E+00   1.56299958101979852E+00
             0.00000000000000000E+00   0.00000000000000000E+00   0.00000000000000000E+00   0.00000000000000000E+00   0.00000000000000000E+00
             0.00000000000000000E+00   0.00000000000000000E+00   0.00000000000000000E+00   0.00000000000000000E+00   0.00000000000000000E+00
             0.00000000000000000E+00   0.00000000000000000E+00   0.00000000000000000E+00   0.00000000000000000E+00   0.00000000000000000E+00
             0.00000000000000000E+00   0.00000000000000000E+00   0.00000000000000000E+00   0.00000000000000000E+00   0.00000000000000000E+00
             0.00000000000000000E+00   0.00000000000000000E+00   0.00000000000000000E+00   0.00000000000000000E+00   0.00000000000000000E+00
             0.00000000000000000E+00   0.00000000000000000E+00   0.00000000000000000E+00   0.00000000000000000E+00   0.00000000000000000E+00
             0.00000000000000000E+00   0.00000000000000000E+00   0.00000000000000000E+00   0.00000000000000000E+00   0.00000000000000000E+00
             0.00000000000000000E+00   0.00000000000000000E+00   0.00000000000000000E+00   0.00000000000000000E+00   0.00000000000000000E+00
             0.00000000000000000E+00   0.00000000000000000E+00   0.00000000000000000E+00   0.00000000000000000E+00   0.00000000000000000E+00
 ETA=   14  -1.19370006879302206E+01  -1.16870003963821212E+01  -1.14370001048340217E+01  -1.11870006670595679E+01  -1.09370003755114702E+01
            -1.06870000839633708E+01  -1.04370006461889169E+01  -1.01870003546408174E+01  -9.93700006309271799E+00  -9.68700062531826589E+00
            -9.43700033377016645E+00  -9.18700004222206701E+00  -8.93700060444761490E+00  -8.68700031289951546E+00  -8.43700002135141602E+00
            -8.18700058357696214E+00  -7.93700029202886448E+00  -7.68700000048076326E+00  -7.43700056270631293E+00  -7.18700027115821349E+00
            -6.93700040649693683E+00  -6.68700054183566106E+00  -6.43700025028756162E+00  -6.18700038562628585E+00  -5.93700052096501008E+00
            -5.68700022941691063E+00  -5.43700036475563486E+00  -5.18700050009435820E+00  -4.93700020854625876E+00  -4.68700034388498299E+00
            -4.43700047922370722E+00  -4.18700018767560778E+00  -3.93700032301433200E+00  -3.68700045835305534E+00  -3.43700038024836729E+00
            -3.18700030214367969E+00  -2.93700043748240391E+00  -2.68700035937771586E+00  -2.43700049471644009E+00  -2.18700041661175248E+00
            -1.93700033850706488E+00  -1.68700036712408297E+00  -1.43700039574110106E+00  -1.18700042435811937E+00  -9.37000452975137454E-01
            -6.87000428231302696E-01  -4.37000430167894360E-01  -1.87000432104486025E-01   6.29995726290289437E-02   3.12999564022330645E-01
             5.62999588766165404E-01   8.12999560149147316E-01   1.06299953153212901E+00   1.31299960963681683E+00   1.56299958101979852E+00
             0.00000000000000000E+00   0.00000000000000000E+00   0.00000000000000000E+00   0.00000000000000000E+00   0.00000000000000000E+00
             0.00000000000000000E+00   0.00000000000000000E+00   0.00000000000000000E+00   0.00000000000000000E+00   0.00000000000000000E+00
             0.00000000000000000E+00   0.00000000000000000E+00   0.00000000000000000E+00   0.00000000000000000E+00   0.00000000000000000E+00
             0.00000000000000000E+00   0.00000000000000000E+00   0.00000000000000000E+00   0.00000000000000000E+00   0.00000000000000000E+00
             0.00000000000000000E+00   0.00000000000000000E+00   0.00000000000000000E+00   0.00000000000000000E+00   0.00000000000000000E+00
             0.00000000000000000E+00   0.00000000000000000E+00   0.00000000000000000E+00   0.00000000000000000E+00   0.00000000000000000E+00
             0.00000000000000000E+00   0.00000000000000000E+00   0.00000000000000000E+00   0.00000000000000000E+00   0.00000000000000000E+00
             0.00000000000000000E+00   0.00000000000000000E+00   0.00000000000000000E+00   0.00000000000000000E+00   0.00000000000000000E+00
             0.00000000000000000E+00   0.00000000000000000E+00   0.00000000000000000E+00   0.00000000000000000E+00   0.00000000000000000E+00
 ETA=   15  -1.19370006879302206E+01  -1.16870003963821212E+01  -1.14370001048340217E+01  -1.11870006670595679E+01  -1.09370003755114702E+01
            -1.06870000839633708E+01  -1.04370006461889169E+01  -1.01870003546408174E+01  -9.93700006309271799E+00  -9.68700062531826589E+00
            -9.43700033377016645E+00  -9.18700004222206701E+00  -8.93700060444761490E+00  -8.68700031289951546E+00  -8.43700002135141602E+00
            -8.18700058357696214E+00  -7.93700029202886448E+00  -7.68700000048076326E+00  -7.43700056270631293E+00  -7.18700027115821349E+00
            -6.93700040649693683E+00  -6.68700054183566106E+00  -6.43700025028756162E+00  -6.18700038562628585E+00  -5.93700052096501008E+00
            -5.68700022941691063E+00  -5.43700036475563486E+00  -5.18700050009435820E+00  -4.93700020854625876E+00  -4.68700034388498299E+00
            -4.43700047922370722E+00  -4.18700018767560778E+00  -3.93700032301433200E+00  -3.68700045835305534E+00  -3.43700038024836729E+00
            -3.18700030214367969E+00  -2.93700043748240391E+00  -2.68700035937771586E+00  -2.43700049471644009E+00  -2.18700041661175248E+00
            -1.93700033850706488E+00  -1.68700036712408297E+00  -1.43700039574110106E+00  -1.18700042435811937E+00  -9.37000452975137454E-01
            -6.87000428231302696E-01  -4.37000430167894360E-01  -1.87000432104486025E-01   6.29995726290289437E-02   3.12999564022330645E-01
             5.62999588766165404E-01   8.12999560149147316E-01   1.06299953153212901E+00   1.31299960963681683E+00   1.56299958101979852E+00
             0.00000000000000000E+00   0.00000000000000000E+00   0.00000000000000000E+00   0.00000000000000000E+00   0.00000000000000000E+00
             0.00000000000000000E+00   0.00000000000000000E+00   0.00000000000000000E+00   0.00000000000000000E+00   0.00000000000000000E+00
             0.00000000000000000E+00   0.00000000000000000E+00   0.00000000000000000E+00   0.00000000000000000E+00   0.00000000000000000E+00
             0.00000000000000000E+00   0.00000000000000000E+00   0.00000000000000000E+00   0.00000000000000000E+00   0.00000000000000000E+00
             0.00000000000000000E+00   0.00000000000000000E+00   0.00000000000000000E+00   0.00000000000000000E+00   0.00000000000000000E+00
             0.00000000000000000E+00   0.00000000000000000E+00   0.00000000000000000E+00   0.00000000000000000E+00   0.00000000000000000E+00
             0.00000000000000000E+00   0.00000000000000000E+00   0.00000000000000000E+00   0.00000000000000000E+00   0.00000000000000000E+00
             0.00000000000000000E+00   0.00000000000000000E+00   0.00000000000000000E+00   0.00000000000000000E+00   0.00000000000000000E+00
             0.00000000000000000E+00   0.00000000000000000E+00   0.00000000000000000E+00   0.00000000000000000E+00   0.00000000000000000E+00
 ETA=   16  -1.19370006879302206E+01  -1.16870003963821212E+01  -1.14370001048340217E+01  -1.11870006670595679E+01  -1.09370003755114702E+01
            -1.06870000839633708E+01  -1.04370006461889169E+01  -1.01870003546408174E+01  -9.93700006309271799E+00  -9.68700062531826589E+00
            -9.43700033377016645E+00  -9.18700004222206701E+00  -8.93700060444761490E+00  -8.68700031289951546E+00  -8.43700002135141602E+00
            -8.18700058357696214E+00  -7.93700029202886448E+00  -7.68700000048076326E+00  -7.43700056270631293E+00  -7.18700027115821349E+00
            -6.93700040649693683E+00  -6.68700054183566106E+00  -6.43700025028756162E+00  -6.18700038562628585E+00  -5.93700052096501008E+00
            -5.68700022941691063E+00  -5.43700036475563486E+00  -5.18700050009435820E+00  -4.93700020854625876E+00  -4.68700034388498299E+00
            -4.43700047922370722E+00  -4.18700018767560778E+00  -3.93700032301433200E+00  -3.68700045835305623E+00  -3.43700038024836729E+00
            -3.18700030214367969E+00  -2.93700043748240391E+00  -2.68700035937771586E+00  -2.43700049471644009E+00  -2.18700041661175248E+00
            -1.93700033850706488E+00  -1.68700036712408297E+00  -1.43700039574110106E+00  -1.18700042435811937E+00  -9.37000452975137454E-01
            -6.87000428231302696E-01  -4.37000430167894360E-01  -1.87000432104486025E-01   6.29995726290289437E-02   3.12999564022330645E-01
             5.62999588766165404E-01   8.12999560149147316E-01   1.06299953153212901E+00   1.31299960963681683E+00   1.56299958101979852E+00
             0.00000000000000000E+00   0.00000000000000000E+00   0.00000000000000000E+00   0.00000000000000000E+00   0.00000000000000000E+00
             0.00000000000000000E+00   0.00000000000000000E+00   0.00000000000000000E+00   0.00000000000000000E+00   0.00000000000000000E+00
             0.00000000000000000E+00   0.00000000000000000E+00   0.00000000000000000E+00   0.00000000000000000E+00   0.00000000000000000E+00
             0.00000000000000000E+00   0.00000000000000000E+00   0.00000000000000000E+00   0.00000000000000000E+00   0.00000000000000000E+00
             0.00000000000000000E+00   0.00000000000000000E+00   0.00000000000000000E+00   0.00000000000000000E+00   0.00000000000000000E+00
             0.00000000000000000E+00   0.00000000000000000E+00   0.00000000000000000E+00   0.00000000000000000E+00   0.00000000000000000E+00
             0.00000000000000000E+00   0.00000000000000000E+00   0.00000000000000000E+00   0.00000000000000000E+00   0.00000000000000000E+00
             0.00000000000000000E+00   0.00000000000000000E+00   0.00000000000000000E+00   0.00000000000000000E+00   0.00000000000000000E+00
             0.00000000000000000E+00   0.00000000000000000E+00   0.00000000000000000E+00   0.00000000000000000E+00   0.00000000000000000E+00
 ETA=   17  -1.19370006879302206E+01  -1.16870003963821212E+01  -1.14370001048340217E+01  -1.11870006670595679E+01  -1.09370003755114702E+01
            -1.06870000839633708E+01  -1.04370006461889169E+01  -1.01870003546408174E+01  -9.93700006309271799E+00  -9.68700062531826589E+00
            -9.43700033377016645E+00  -9.18700004222206701E+00  -8.93700060444761490E+00  -8.68700031289951546E+00  -8.43700002135141602E+00
            -8.18700058357696214E+00  -7.93700029202886448E+00  -7.68700000048076326E+00  -7.43700056270631293E+00  -7.18700027115821349E+00
            -6.93700040649693683E+00  -6.68700054183566106E+00  -6.43700025028756162E+00  -6.18700038562628585E+00  -5.93700052096501008E+00
            -5.68700022941691063E+00  -5.43700036475563486E+00  -5.18700050009435820E+00  -4.93700020854625876E+00  -4.68700034388498299E+00
            -4.43700047922370722E+00  -4.18700018767560778E+00  -3.93700032301433200E+00  -3.68700045835305623E+00  -3.43700038024836729E+00
            -3.18700030214367969E+00  -2.93700043748240391E+00  -2.68700035937771586E+00  -2.43700049471644009E+00  -2.18700041661175248E+00
            -1.93700033850706488E+00  -1.68700036712408297E+00  -1.43700039574110106E+00  -1.18700042435811937E+00  -9.37000452975137454E-01
            -6.87000428231302696E-01  -4.37000430167894360E-01  -1.87000432104486025E-01   6.29995726290289437E-02   3.12999564022330645E-01
             5.62999588766165404E-01   8.12999560149147316E-01   1.06299953153212901E+00   1.31299960963681683E+00   1.56299958101979852E+00
             0.00000000000000000E+00   0.00000000000000000E+00   0.00000000000000000E+00   0.00000000000000000E+00   0.00000000000000000E+00
             0.00000000000000000E+00   0.00000000000000000E+00   0.00000000000000000E+00   0.00000000000000000E+00   0.00000000000000000E+00
             0.00000000000000000E+00   0.00000000000000000E+00   0.00000000000000000E+00   0.00000000000000000E+00   0.00000000000000000E+00
             0.00000000000000000E+00   0.00000000000000000E+00   0.00000000000000000E+00   0.00000000000000000E+00   0.00000000000000000E+00
             0.00000000000000000E+00   0.00000000000000000E+00   0.00000000000000000E+00   0.00000000000000000E+00   0.00000000000000000E+00
             0.00000000000000000E+00   0.00000000000000000E+00   0.00000000000000000E+00   0.00000000000000000E+00   0.00000000000000000E+00
             0.00000000000000000E+00   0.00000000000000000E+00   0.00000000000000000E+00   0.00000000000000000E+00   0.00000000000000000E+00
             0.00000000000000000E+00   0.00000000000000000E+00   0.00000000000000000E+00   0.00000000000000000E+00   0.00000000000000000E+00
             0.00000000000000000E+00   0.00000000000000000E+00   0.00000000000000000E+00   0.00000000000000000E+00   0.00000000000000000E+00
 ETA=   18  -1.19370006879302206E+01  -1.16870003963821212E+01  -1.14370001048340217E+01  -1.11870006670595679E+01  -1.09370003755114702E+01
            -1.06870000839633708E+01  -1.04370006461889169E+01  -1.01870003546408174E+01  -9.93700006309271799E+00  -9.68700062531826589E+00
            -9.43700033377016645E+00  -9.18700004222206701E+00  -8.93700060444761490E+00  -8.68700031289951546E+00  -8.43700002135141602E+00
            -8.18700058357696214E+00  -7.93700029202886448E+00  -7.68700000048076326E+00  -7.43700056270631293E+00  -7.18700027115821349E+00
            -6.93700040649693683E+00  -6.68700054183566106E+00  -6.43700025028756162E+00  -6.18700038562628585E+00  -5.93700052096501008E+00
            -5.68700022941691063E+00  -5.43700036475563486E+00  -5.18700050009435820E+00  -4.93700020854625876E+00  -4.68700034388498299E+00
            -4.43700047922370722E+00  -4.18700018767560778E+00  -3.93700032301433200E+00  -3.68700045835305623E+00  -3.43700038024836729E+00
            -3.18700030214367969E+00  -2.93700022403899208E+00  -2.68700035937771586E+00  -2.43700049471644009E+00  -2.18700041661175248E+00
            -1.93700033850706488E+00  -1.68700036712408297E+00  -1.43700039574110106E+00  -1.18700042435811937E+00  -9.37000452975137454E-01
            -6.87000428231302696E-01  -4.37000430167894360E-01  -1.87000432104486025E-01   6.29995726290289437E-02   3.12999564022330645E-01
             5.62999588766165404E-01   8.12999560149147316E-01   1.06299953153212901E+00   1.31299960963681683E+00   1.56299958101979852E+00
             1.81299955240278043E+00   0.00000000000000000E+00   0.00000000000000000E+00   0.00000000000000000E+00   0.00000000000000000E+00
             0.00000000000000000E+00   0.00000000000000000E+00   0.00000000000000000E+00   0.00000000000000000E+00   0.00000000000000000E+00
             0.00000000000000000E+00   0.00000000000000000E+00   0.00000000000000000E+00   0.00000000000000000E+00   0.00000000000000000E+00
             0.00000000000000000E+00   0.00000000000000000E+00   0.00000000000000000E+00   0.00000000000000000E+00   0.00000000000000000E+00
             0.00000000000000000E+00   0.00000000000000000E+00   0.00000000000000000E+00   0.00000000000000000E+00   0.00000000000000000E+00
             0.00000000000000000E+00   0.00000000000000000E+00   0.00000000000000000E+00   0.00000000000000000E+00   0.00000000000000000E+00
             0.00000000000000000E+00   0.00000000000000000E+00   0.00000000000000000E+00   0.00000000000000000E+00   0.00000000000000000E+00
             0.00000000000000000E+00   0.00000000000000000E+00   0.00000000000000000E+00   0.00000000000000000E+00   0.00000000000000000E+00
             0.00000000000000000E+00   0.00000000000000000E+00   0.00000000000000000E+00   0.00000000000000000E+00   0.00000000000000000E+00
 ETA=   19  -1.19370006879302206E+01  -1.16870003963821212E+01  -1.14370001048340217E+01  -1.11870006670595679E+01  -1.09370003755114702E+01
            -1.06870000839633708E+01  -1.04370006461889169E+01  -1.01870003546408174E+01  -9.93700006309271799E+00  -9.68700062531826589E+00
            -9.43700033377016645E+00  -9.18700004222206701E+00  -8.93700060444761490E+00  -8.68700031289951546E+00  -8.43700002135141602E+00
            -8.18700058357696214E+00  -7.93700029202886448E+00  -7.68700000048076326E+00  -7.43700056270631293E+00  -7.18700027115821349E+00
            -6.93700040649693683E+00  -6.68700054183566106E+00  -6.43700025028756162E+00  -6.18700038562628585E+00  -5.93700052096501008E+00
            -5.68700022941691063E+00  -5.43700036475563486E+00  -5.18700050009435820E+00  -4.93700020854625876E+00  -4.68700034388498299E+00
            -4.43700047922370722E+00  -4.18700018767560778E+00  -3.93700032301433200E+00  -3.68700045835305623E+00  -3.43700038024836729E+00
            -3.18700030214367969E+00  -2.93700001059558025E+00  -2.68700035937771586E+00  -2.43700049471644009E+00  -2.18700041661175248E+00
            -1.93700033850706488E+00  -1.68700036712408297E+00  -1.43700039574110106E+00  -1.18700042435811937E+00  -9.37000452975137454E-01
            -6.87000428231302696E-01  -4.37000430167894360E-01  -1.87000432104486025E-01   6.29995726290289437E-02   3.12999564022330645E-01
             5.62999588766165404E-01   8.12999560149147316E-01   1.06299953153212901E+00   1.31299960963681683E+00   1.56299958101979852E+00
             1.81299955240278043E+00   2.06299963050746804E+00   2.31299949516874381E+00   2.56299957327343231E+00   0.00000000000000000E+00
             0.00000000000000000E+00   0.00000000000000000E+00   0.00000000000000000E+00   0.00000000000000000E+00   0.00000000000000000E+00
             0.00000000000000000E+00   0.00000000000000000E+00   0.00000000000000000E+00   0.00000000000000000E+00   0.00000000000000000E+00
             0.00000000000000000E+00   0.00000000000000000E+00   0.00000000000000000E+00   0.00000000000000000E+00   0.00000000000000000E+00
             0.00000000000000000E+00   0.00000000000000000E+00   0.00000000000000000E+00   0.00000000000000000E+00   0.00000000000000000E+00
             0.00000000000000000E+00   0.00000000000000000E+00   0.00000000000000000E+00   0.00000000000000000E+00   0.00000000000000000E+00
             0.00000000000000000E+00   0.00000000000000000E+00   0.00000000000000000E+00   0.00000000000000000E+00   0.00000000000000000E+00
             0.00000000000000000E+00   0.00000000000000000E+00   0.00000000000000000E+00   0.00000000000000000E+00   0.00000000000000000E+00
             0.00000000000000000E+00   0.00000000000000000E+00   0.00000000000000000E+00   0.00000000000000000E+00   0.00000000000000000E+00
 ETA=   20  -1.19370006879302206E+01  -1.16870003963821212E+01  -1.14370001048340217E+01  -1.11870006670595679E+01  -1.09370003755114702E+01
            -1.06870000839633708E+01  -1.04370006461889169E+01  -1.01870003546408174E+01  -9.93700006309271799E+00  -9.68700062531826589E+00
            -9.43700033377016645E+00  -9.18700004222206701E+00  -8.93700060444761490E+00  -8.68700031289951546E+00  -8.43700002135141602E+00
            -8.18700058357696214E+00  -7.93700029202886448E+00  -7.68700000048076326E+00  -7.43700056270631293E+00  -7.18700027115821349E+00
            -6.93700040649693683E+00  -6.68700054183566106E+00  -6.43700025028756162E+00  -6.18700038562628585E+00  -5.93700052096501008E+00
            -5.68700022941691063E+00  -5.43700036475563486E+00  -5.18700050009435820E+00  -4.93700020854625876E+00  -4.68700034388498299E+00
            -4.43700047922370722E+00  -4.18700018767560778E+00  -3.93700032301433200E+00  -3.68700045835305534E+00  -3.43700038024836729E+00
            -3.18700030214367969E+00  -2.93700043748240391E+00  -2.68700035937771586E+00  -2.43700049471644009E+00  -2.18700041661175248E+00
            -1.93700033850706488E+00  -1.68700036712408297E+00  -1.43700039574110106E+00  -1.18700042435811937E+00  -9.37000452975137454E-01
            -6.87000428231302696E-01  -4.37000430167894360E-01  -1.87000432104486025E-01   6.29995726290289437E-02   3.12999617383183493E-01
             5.62999588766165404E-01   8.12999560149147316E-01   1.06299953153212901E+00   1.31299960963681683E+00   1.56299958101979852E+00
             1.81299955240278043E+00   2.06299963050746804E+00   2.31299949516874381E+00   2.56299957327343231E+00   2.81299965137811991E+00
             3.06299951603939569E+00   0.00000000000000000E+00   0.00000000000000000E+00   0.00000000000000000E+00   0.00000000000000000E+00
             0.00000000000000000E+00   0.00000000000000000E+00   0.00000000000000000E+00   0.00000000000000000E+00   0.00000000000000000E+00
             0.00000000000000000E+00   0.00000000000000000E+00   0.00000000000000000E+00   0.00000000000000000E+00   0.00000000000000000E+00
             0.00000000000000000E+00   0.00000000000000000E+00   0.00000000000000000E+00   0.00000000000000000E+00   0.00000000000000000E+00
             0.00000000000000000E+00   0.00000000000000000E+00   0.00000000000000000E+00   0.00000000000000000E+00   0.00000000000000000E+00
             0.00000000000000000E+00   0.00000000000000000E+00   0.00000000000000000E+00   0.00000000000000000E+00   0.00000000000000000E+00
             0.00000000000000000E+00   0.00000000000000000E+00   0.00000000000000000E+00   0.00000000000000000E+00   0.00000000000000000E+00
             0.00000000000000000E+00   0.00000000000000000E+00   0.00000000000000000E+00   0.00000000000000000E+00   0.00000000000000000E+00
 ETA=   21  -1.19370006879302206E+01  -1.16870003963821212E+01  -1.14370001048340217E+01  -1.11870006670595679E+01  -1.09370003755114702E+01
            -1.06870000839633708E+01  -1.04370006461889169E+01  -1.01870003546408174E+01  -9.93700006309271799E+00  -9.68700062531826589E+00
            -9.43700033377016645E+00  -9.18700004222206701E+00  -8.93700060444761490E+00  -8.68700031289951546E+00  -8.43700002135141602E+00
            -8.18700058357696214E+00  -7.93700029202886448E+00  -7.68700000048076326E+00  -7.43700056270631293E+00  -7.18700027115821349E+00
            -6.93700040649693683E+00  -6.68700054183566106E+00  -6.43700025028756162E+00  -6.18700038562628585E+00  -5.93700052096501008E+00
            -5.68700022941691063E+00  -5.43700036475563486E+00  -5.18700050009435820E+00  -4.93700020854625876E+00  -4.68700034388498299E+00
            -4.43700047922370722E+00  -4.18700018767560778E+00  -3.93700032301433200E+00  -3.68700045835305534E+00  -3.43700038024836729E+00
            -3.18700030214367969E+00  -2.93700043748240391E+00  -2.68700035937771586E+00  -2.43700049471644009E+00  -2.18700041661175248E+00
            -1.93700033850706488E+00  -1.68700026040237727E+00  -1.43700039574110106E+00  -1.18700042435811937E+00  -9.37000452975137454E-01
            -6.87000428231302696E-01  -4.37000430167894360E-01  -1.87000432104486025E-01   6.29995726290289437E-02   3.12999617383183493E-01
             5.62999588766165404E-01   8.12999560149147316E-01   1.06299953153212901E+00   1.31299960963681683E+00   1.56299958101979852E+00
             1.81299955240278043E+00   2.06299963050746804E+00   2.31299949516874381E+00   2.56299957327343231E+00   2.81299965137811991E+00
             3.06299951603939569E+00   3.31299959414408329E+00   3.56299945880535951E+00   3.81299975035345895E+00   0.00000000000000000E+00
             0.00000000000000000E+00   0.00000000000000000E+00   0.00000000000000000E+00   0.00000000000000000E+00   0.00000000000000000E+00
             0.00000000000000000E+00   0.00000000000000000E+00   0.00000000000000000E+00   0.00000000000000000E+00   0.00000000000000000E+00
             0.00000000000000000E+00   0.00000000000000000E+00   0.00000000000000000E+00   0.00000000000000000E+00   0.00000000000000000E+00
             0.00000000000000000E+00   0.00000000000000000E+00   0.00000000000000000E+00   0.00000000000000000E+00   0.00000000000000000E+00
             0.00000000000000000E+00   0.00000000000000000E+00   0.00000000000000000E+00   0.00000000000000000E+00   0.00000000000000000E+00
             0.00000000000000000E+00   0.00000000000000000E+00   0.00000000000000000E+00   0.00000000000000000E+00   0.00000000000000000E+00
             0.00000000000000000E+00   0.00000000000000000E+00   0.00000000000000000E+00   0.00000000000000000E+00   0.00000000000000000E+00
 ETA=   22  -1.19370006879302206E+01  -1.16870003963821212E+01  -1.14370001048340217E+01  -1.11870006670595679E+01  -1.09370003755114702E+01
            -1.06870000839633708E+01  -1.04370006461889169E+01  -1.01870003546408174E+01  -9.93700006309271799E+00  -9.68700062531826589E+00
            -9.43700033377016645E+00  -9.18700004222206701E+00  -8.93700060444761490E+00  -8.68700031289951546E+00  -8.43700002135141602E+00
            -8.18700058357696214E+00  -7.93700029202886448E+00  -7.68700000048076326E+00  -7.43700056270631293E+00  -7.18700027115821349E+00
            -6.93700040649693683E+00  -6.68700054183566106E+00  -6.43700025028756162E+00  -6.18700038562628585E+00  -5.93700052096501008E+00
            -5.68700022941691063E+00  -5.43700036475563486E+00  -5.18700050009435820E+00  -4.93700020854625876E+00  -4.68700034388498299E+00
            -4.43700047922370722E+00  -4.18700018767560778E+00  -3.93700032301433200E+00  -3.68700045835305534E+00  -3.43700038024836729E+00
            -3.18700030214367969E+00  -2.93700043748240391E+00  -2.68700035937771586E+00  -2.43700049471644009E+00  -2.18700041661175248E+00
            -1.93700033850706488E+00  -1.68700026040237727E+00  -1.43700039574110106E+00  -1.18700042435811937E+00  -9.37000452975137454E-01
            -6.87000428231302696E-01  -4.37000430167894360E-01  -1.87000432104486025E-01   6.29995726290289437E-02   3.12999617383183493E-01
             5.62999588766165404E-01   8.12999560149147316E-01   1.06299953153212901E+00   1.31299960963681683E+00   1.56299958101979852E+00
             1.81299955240278043E+00   2.06299963050746804E+00   2.31299949516874381E+00   2.56299957327343231E+00   2.81299965137811991E+00
             3.06299951603939569E+00   3.31299959414408329E+00   3.56299945880535951E+00   3.81299975035345895E+00   0.00000000000000000E+00
             0.00000000000000000E+00   0.00000000000000000E+00   0.00000000000000000E+00   0.00000000000000000E+00   0.00000000000000000E+00
             0.00000000000000000E+00   0.00000000000000000E+00   0.00000000000000000E+00   0.00000000000000000E+00   0.00000000000000000E+00
             0.00000000000000000E+00   0.00000000000000000E+00   0.00000000000000000E+00   0.00000000000000000E+00   0.00000000000000000E+00
             0.00000000000000000E+00   0.00000000000000000E+00   0.00000000000000000E+00   0.00000000000000000E+00   0.00000000000000000E+00
             0.00000000000000000E+00   0.00000000000000000E+00   0.00000000000000000E+00   0.00000000000000000E+00   0.00000000000000000E+00
             0.00000000000000000E+00   0.00000000000000000E+00   0.00000000000000000E+00   0.00000000000000000E+00   0.00000000000000000E+00
             0.00000000000000000E+00   0.00000000000000000E+00   0.00000000000000000E+00   0.00000000000000000E+00   0.00000000000000000E+00
 ETA=   23  -1.19370006879302206E+01  -1.16870003963821212E+01  -1.14370001048340217E+01  -1.11870006670595679E+01  -1.09370003755114702E+01
            -1.06870000839633708E+01  -1.04370006461889169E+01  -1.01870003546408174E+01  -9.93700006309271799E+00  -9.68700062531826589E+00
            -9.43700033377016645E+00  -9.18700004222206701E+00  -8.93700060444761490E+00  -8.68700031289951546E+00  -8.43700002135141602E+00
            -8.18700058357696214E+00  -7.93700029202886448E+00  -7.68700000048076326E+00  -7.43700056270631293E+00  -7.18700027115821349E+00
            -6.93700040649693683E+00  -6.68700054183566106E+00  -6.43700025028756162E+00  -6.18700038562628585E+00  -5.93700052096501008E+00
            -5.68700022941691063E+00  -5.43700036475563486E+00  -5.18700050009435820E+00  -4.93700020854625876E+00  -4.68700034388498299E+00
            -4.43700047922370722E+00  -4.18700018767560778E+00  -3.93700032301433200E+00  -3.68700045835305534E+00  -3.43700059369177868E+00
            -3.18700030214367969E+00  -2.93700043748240391E+00  -2.68700035937771586E+00  -2.43700049471644009E+00  -2.18700041661175248E+00
            -1.93700033850706488E+00  -1.68700026040237727E+00  -1.43700039574110106E+00  -1.18700042435811937E+00  -9.37000452975137454E-01
            -6.87000428231302696E-01  -4.37000430167894360E-01  -1.87000432104486025E-01   6.29995726290289437E-02   3.12999617383183493E-01
             5.62999588766165404E-01   8.12999560149147316E-01   1.06299953153212901E+00   1.31299960963681683E+00   1.56299958101979852E+00
             1.81299955240278043E+00   2.06299963050746804E+00   2.31299949516874381E+00   2.56299957327343231E+00   2.81299965137811991E+00
             3.06299951603939569E+00   3.31299959414408329E+00   3.56299945880535951E+00   3.81299975035345895E+00   0.00000000000000000E+00
             0.00000000000000000E+00   0.00000000000000000E+00   0.00000000000000000E+00   0.00000000000000000E+00   0.00000000000000000E+00
             0.00000000000000000E+00   0.00000000000000000E+00   0.00000000000000000E+00   0.00000000000000000E+00   0.00000000000000000E+00
             0.00000000000000000E+00   0.00000000000000000E+00   0.00000000000000000E+00   0.00000000000000000E+00   0.00000000000000000E+00
             0.00000000000000000E+00   0.00000000000000000E+00   0.00000000000000000E+00   0.00000000000000000E+00   0.00000000000000000E+00
             0.00000000000000000E+00   0.00000000000000000E+00   0.00000000000000000E+00   0.00000000000000000E+00   0.00000000000000000E+00
             0.00000000000000000E+00   0.00000000000000000E+00   0.00000000000000000E+00   0.00000000000000000E+00   0.00000000000000000E+00
             0.00000000000000000E+00   0.00000000000000000E+00   0.00000000000000000E+00   0.00000000000000000E+00   0.00000000000000000E+00
 ETA=   24  -1.19370006879302206E+01  -1.16870003963821212E+01  -1.14370001048340217E+01  -1.11870006670595679E+01  -1.09370003755114702E+01
            -1.06870000839633708E+01  -1.04370006461889169E+01  -1.01870003546408174E+01  -9.93700006309271799E+00  -9.68699891777097122E+00
            -9.43699777244922444E+00  -9.18699662712747767E+00  -8.93699548180573089E+00  -8.68699433648398411E+00  -8.43699319116223734E+00
            -8.18700058357696214E+00  -7.93700029202886448E+00  -7.68700000048076326E+00  -7.43700056270631293E+00  -7.18700027115821349E+00
            -6.93700040649693683E+00  -6.68700054183566106E+00  -6.43700025028756162E+00  -6.18700038562628585E+00  -5.93700052096501008E+00
            -5.68700022941691063E+00  -5.43700036475563486E+00  -5.18700050009435820E+00  -4.93700020854625876E+00  -4.68700034388498299E+00
            -4.43700047922370722E+00  -4.18700018767560778E+00  -3.93700032301433200E+00  -3.68700045835305534E+00  -3.43700059369177868E+00
            -3.18700030214367969E+00  -2.93700043748240391E+00  -2.68700035937771586E+00  -2.43700049471644009E+00  -2.18700041661175248E+00
            -1.93700033850706488E+00  -1.68700026040237727E+00  -1.43700039574110106E+00  -1.18700042435811937E+00  -9.37000452975137454E-01
            -6.87000428231302696E-01  -4.37000430167894360E-01  -1.87000432104486025E-01   6.29995726290289437E-02   3.12999617383183493E-01
             5.62999588766165404E-01   8.12999560149147316E-01   1.06299953153212901E+00   1.31299960963681683E+00   1.56299958101979852E+00
             1.81299955240278043E+00   2.06299963050746804E+00   2.31299949516874381E+00   2.56299957327343231E+00   2.81299965137811991E+00
             3.06299951603939569E+00   3.31299959414408329E+00   3.56299945880535951E+00   3.81299975035345895E+00   4.06299961501473561E+00
             0.00000000000000000E+00   0.00000000000000000E+00   0.00000000000000000E+00   0.00000000000000000E+00   0.00000000000000000E+00
             0.00000000000000000E+00   0.00000000000000000E+00   0.00000000000000000E+00   0.00000000000000000E+00   0.00000000000000000E+00
             0.00000000000000000E+00   0.00000000000000000E+00   0.00000000000000000E+00   0.00000000000000000E+00   0.00000000000000000E+00
             0.00000000000000000E+00   0.00000000000000000E+00   0.00000000000000000E+00   0.00000000000000000E+00   0.00000000000000000E+00
             0.00000000000000000E+00   0.00000000000000000E+00   0.00000000000000000E+00   0.00000000000000000E+00   0.00000000000000000E+00
             0.00000000000000000E+00   0.00000000000000000E+00   0.00000000000000000E+00   0.00000000000000000E+00   0.00000000000000000E+00
             0.00000000000000000E+00   0.00000000000000000E+00   0.00000000000000000E+00   0.00000000000000000E+00   0.00000000000000000E+00
 ETA=   25  -1.19370006879302206E+01  -1.16870003963821212E+01  -1.14370001048340217E+01  -1.11870006670595679E+01  -1.09370003755114702E+01
            -1.06870000839633708E+01  -1.04370006461889169E+01  -1.01870003546408174E+01  -9.93700006309271799E+00  -9.68699977154461855E+00
            -9.43699947999651911E+00  -9.18699918844841967E+00  -8.93699889690032023E+00  -8.68699860535222079E+00  -8.43699831380412135E+00
            -8.18699802225602191E+00  -7.93699773070792247E+00  -7.68700000048076326E+00  -7.43700056270631293E+00  -7.18700027115821349E+00
            -6.93700040649693683E+00  -6.68700054183566106E+00  -6.43700025028756162E+00  -6.18700038562628585E+00  -5.93700052096501008E+00
            -5.68700022941691063E+00  -5.43700036475563486E+00  -5.18700050009435820E+00  -4.93700020854625876E+00  -4.68700034388498299E+00
            -4.43700047922370722E+00  -4.18700018767560778E+00  -3.93700032301433200E+00  -3.68700045835305534E+00  -3.43700059369177868E+00
            -3.18700030214367969E+00  -2.93700043748240391E+00  -2.68700035937771586E+00  -2.43700049471644009E+00  -2.18700041661175248E+00
            -1.93700033850706488E+00  -1.68700026040237727E+00  -1.43700039574110106E+00  -1.18700042435811937E+00  -9.37000452975137454E-01
            -6.87000428231302696E-01  -4.37000430167894360E-01  -1.87000432104486025E-01   6.29995726290289437E-02   3.12999617383183493E-01
             5.62999588766165404E-01   8.12999560149147316E-01   1.06299953153212901E+00   1.31299960963681683E+00   1.56299958101979852E+00
             1.81299955240278043E+00   2.06299963050746804E+00   2.31299949516874381E+00   2.56299957327343231E+00   2.81299965137811991E+00
             3.06299951603939569E+00   3.31299959414408329E+00   3.56299945880535951E+00   3.81299975035345895E+00   4.06299961501473561E+00
             4.31299947967601049E+00   0.00000000000000000E+00   0.00000000000000000E+00   0.00000000000000000E+00   0.00000000000000000E+00
             0.00000000000000000E+00   0.00000000000000000E+00   0.00000000000000000E+00   0.00000000000000000E+00   0.00000000000000000E+00
             0.00000000000000000E+00   0.00000000000000000E+00   0.00000000000000000E+00   0.00000000000000000E+00   0.00000000000000000E+00
             0.00000000000000000E+00   0.00000000000000000E+00   0.00000000000000000E+00   0.00000000000000000E+00   0.00000000000000000E+00
             0.00000000000000000E+00   0.00000000000000000E+00   0.00000000000000000E+00   0.00000000000000000E+00   0.00000000000000000E+00
             0.00000000000000000E+00   0.00000000000000000E+00   0.00000000000000000E+00   0.00000000000000000E+00   0.00000000000000000E+00
             0.00000000000000000E+00   0.00000000000000000E+00   0.00000000000000000E+00   0.00000000000000000E+00   0.00000000000000000E+00
 ETA=   26  -1.19370006879302206E+01  -1.16870003963821212E+01  -1.14370001048340217E+01  -1.11870006670595679E+01  -1.09370003755114702E+01
            -1.06870000839633708E+01  -1.04370006461889169E+01  -1.01870003546408174E+01  -9.93700006309271799E+00  -9.68700062531826589E+00
            -9.43700118754381378E+00  -9.18700174976936168E+00  -8.93700231199490958E+00  -8.68700287422045747E+00  -8.43700343644600537E+00
            -8.18700399867155326E+00  -7.93700456089710116E+00  -7.68700512312264905E+00  -7.43700056270631293E+00  -7.18700027115821349E+00
            -6.93700040649693683E+00  -6.68700054183566106E+00  -6.43700025028756162E+00  -6.18700038562628585E+00  -5.93700052096501008E+00
            -5.68700022941691063E+00  -5.43700036475563486E+00  -5.18700050009435820E+00  -4.93700020854625876E+00  -4.68700034388498299E+00
            -4.43700047922370722E+00  -4.18700018767560778E+00  -3.93700032301433200E+00  -3.68700045835305534E+00  -3.43700016680495546E+00
            -3.18700030214367969E+00  -2.93700043748240391E+00  -2.68700035937771586E+00  -2.43700049471644009E+00  -2.18700041661175248E+00
            -1.93700033850706488E+00  -1.68700026040237727E+00  -1.43700039574110106E+00  -1.18700042435811937E+00  -9.37000452975137454E-01
            -6.87000428231302696E-01  -4.37000430167894360E-01  -1.87000432104486025E-01   6.29995726290289437E-02   3.12999617383183493E-01
             5.62999588766165404E-01   8.12999560149147316E-01   1.06299953153212901E+00   1.31299960963681683E+00   1.56299958101979852E+00
             1.81299955240278043E+00   2.06299963050746804E+00   2.31299949516874381E+00   2.56299957327343231E+00   2.81299965137811991E+00
             3.06299951603939569E+00   3.31299959414408329E+00   3.56299945880535951E+00   3.81299975035345895E+00   4.06299961501473561E+00
             4.31299947967601049E+00   4.56299934433728627E+00   0.00000000000000000E+00   0.00000000000000000E+00   0.00000000000000000E+00
             0.00000000000000000E+00   0.00000000000000000E+00   0.00000000000000000E+00   0.00000000000000000E+00   0.00000000000000000E+00
             0.00000000000000000E+00   0.00000000000000000E+00   0.00000000000000000E+00   0.00000000000000000E+00   0.00000000000000000E+00
             0.00000000000000000E+00   0.00000000000000000E+00   0.00000000000000000E+00   0.00000000000000000E+00   0.00000000000000000E+00
             0.00000000000000000E+00   0.00000000000000000E+00   0.00000000000000000E+00   0.00000000000000000E+00   0.00000000000000000E+00
             0.00000000000000000E+00   0.00000000000000000E+00   0.00000000000000000E+00   0.00000000000000000E+00   0.00000000000000000E+00
             0.00000000000000000E+00   0.00000000000000000E+00   0.00000000000000000E+00   0.00000000000000000E+00   0.00000000000000000E+00
 ETA=   27  -1.19370006879302206E+01  -1.16870003963821212E+01  -1.14370001048340217E+01  -1.11870006670595679E+01  -1.09370003755114702E+01
            -1.06870000839633708E+01  -1.04370006461889169E+01  -1.01870003546408174E+01  -9.93700006309271799E+00  -9.68700062531826589E+00
            -9.43700118754381378E+00  -9.18700174976936168E+00  -8.93700231199490958E+00  -8.68700287422045747E+00  -8.43700343644600537E+00
            -8.18700399867155326E+00  -7.93700456089710116E+00  -7.68700512312264905E+00  -7.43700568534819695E+00  -7.18700624757374484E+00
            -6.93700680979929274E+00  -6.68696297579517918E+00  -6.43700025028756162E+00  -6.18700038562628585E+00  -5.93700052096501008E+00
            -5.68700022941691063E+00  -5.43700036475563486E+00  -5.18700050009435820E+00  -4.93700020854625876E+00  -4.68700034388498299E+00
            -4.43700047922370722E+00  -4.18700018767560778E+00  -3.93700032301433200E+00  -3.68700045835305534E+00  -3.43700016680495546E+00
            -3.18700030214367969E+00  -2.93700043748240391E+00  -2.68700035937771586E+00  -2.43700049471644009E+00  -2.18700041661175248E+00
            -1.93700033850706488E+00  -1.68700026040237727E+00  -1.43700039574110106E+00  -1.18700042435811937E+00  -9.37000452975137454E-01
            -6.87000428231302696E-01  -4.37000430167894360E-01  -1.87000432104486025E-01   6.29995726290289437E-02   3.12999617383183493E-01
             5.62999588766165404E-01   8.12999560149147316E-01   1.06299953153212901E+00   1.31299960963681683E+00   1.56299958101979852E+00
             1.81299955240278043E+00   2.06299963050746804E+00   2.31299949516874381E+00   2.56299957327343231E+00   2.81299965137811991E+00
             3.06299951603939569E+00   3.31299959414408329E+00   3.56299945880535951E+00   3.81299975035345895E+00   4.06299961501473561E+00
             4.31299947967601049E+00   4.56299934433728627E+00   0.00000000000000000E+00   0.00000000000000000E+00   0.00000000000000000E+00
             0.00000000000000000E+00   0.00000000000000000E+00   0.00000000000000000E+00   0.00000000000000000E+00   0.00000000000000000E+00
             0.00000000000000000E+00   0.00000000000000000E+00   0.00000000000000000E+00   0.00000000000000000E+00   0.00000000000000000E+00
             0.00000000000000000E+00   0.00000000000000000E+00   0.00000000000000000E+00   0.00000000000000000E+00   0.00000000000000000E+00
             0.00000000000000000E+00   0.00000000000000000E+00   0.00000000000000000E+00   0.00000000000000000E+00   0.00000000000000000E+00
             0.00000000000000000E+00   0.00000000000000000E+00   0.00000000000000000E+00   0.00000000000000000E+00   0.00000000000000000E+00
             0.00000000000000000E+00   0.00000000000000000E+00   0.00000000000000000E+00   0.00000000000000000E+00   0.00000000000000000E+00
 ETA=   28  -1.19370006879302206E+01  -1.16870003963821212E+01  -1.14370001048340217E+01  -1.11870006670595679E+01  -1.09370003755114702E+01
            -1.06870000839633708E+01  -1.04370006461889169E+01  -1.01870003546408174E+01  -9.93700006309271799E+00  -9.68700062531826589E+00
            -9.43700033377016645E+00  -9.18700004222206701E+00  -8.93699975067396757E+00  -8.68699945912586813E+00  -8.43699916757776869E+00
            -8.18699887602966925E+00  -7.93699858448156981E+00  -7.68699829293347037E+00  -7.43699800138537093E+00  -7.18699770983727149E+00
            -6.93699741828917205E+00  -6.68697151353165253E+00  -6.43696866066261109E+00  -6.18700038562628585E+00  -5.93700052096501008E+00
            -5.68700022941691063E+00  -5.43700036475563486E+00  -5.18700050009435820E+00  -4.93700020854625876E+00  -4.68700034388498299E+00
            -4.43700047922370722E+00  -4.18700018767560778E+00  -3.93700032301433200E+00  -3.68700045835305534E+00  -3.43700016680495546E+00
            -3.18700030214367969E+00  -2.93700043748240391E+00  -2.68700035937771586E+00  -2.43700049471644009E+00  -2.18700041661175248E+00
            -1.93700033850706488E+00  -1.68700026040237727E+00  -1.43700039574110106E+00  -1.18700042435811937E+00  -9.37000452975137454E-01
            -6.87000428231302696E-01  -4.37000430167894360E-01  -1.87000432104486025E-01   6.29995726290289437E-02   3.12999617383183493E-01
             5.62999588766165404E-01   8.12999560149147316E-01   1.06299953153212901E+00   1.31299960963681683E+00   1.56299958101979852E+00
             1.81299955240278043E+00   2.06299963050746804E+00   2.31299949516874381E+00   2.56299957327343231E+00   2.81299965137811991E+00
             3.06299951603939569E+00   3.31299959414408329E+00   3.56299945880535951E+00   3.81299975035345895E+00   4.06299961501473561E+00
             4.31299947967601049E+00   4.56299934433728627E+00   0.00000000000000000E+00   0.00000000000000000E+00   0.00000000000000000E+00
             0.00000000000000000E+00   0.00000000000000000E+00   0.00000000000000000E+00   0.00000000000000000E+00   0.00000000000000000E+00
             0.00000000000000000E+00   0.00000000000000000E+00   0.00000000000000000E+00   0.00000000000000000E+00   0.00000000000000000E+00
             0.00000000000000000E+00   0.00000000000000000E+00   0.00000000000000000E+00   0.00000000000000000E+00   0.00000000000000000E+00
             0.00000000000000000E+00   0.00000000000000000E+00   0.00000000000000000E+00   0.00000000000000000E+00   0.00000000000000000E+00
             0.00000000000000000E+00   0.00000000000000000E+00   0.00000000000000000E+00   0.00000000000000000E+00   0.00000000000000000E+00
             0.00000000000000000E+00   0.00000000000000000E+00   0.00000000000000000E+00   0.00000000000000000E+00   0.00000000000000000E+00
 ETA=   29  -1.19370006879302206E+01  -1.16870003963821212E+01  -1.14370001048340217E+01  -1.11870006670595679E+01  -1.09370003755114702E+01
            -1.06870000839633708E+01  -1.04370006461889169E+01  -1.01870003546408174E+01  -9.93700006309271799E+00  -9.68700062531826589E+00
            -9.43700033377016645E+00  -9.18700004222206701E+00  -8.93699975067396757E+00  -8.68699945912586813E+00  -8.43699916757776869E+00
            -8.18699887602966925E+00  -7.93699858448156981E+00  -7.68699829293347037E+00  -7.43699800138537093E+00  -7.18699770983727149E+00
            -6.93699741828917205E+00  -6.68698005126812589E+00  -6.43697805217273178E+00  -6.18700038562628585E+00  -5.93700052096501008E+00
            -5.68700022941691063E+00  -5.43700036475563486E+00  -5.18700050009435820E+00  -4.93700020854625876E+00  -4.68700034388498299E+00
[...]
             0.00000000000000000E+00   0.00000000000000000E+00   0.00000000000000000E+00   0.00000000000000000E+00   0.00000000000000000E+00
 ETA=   80   0.00000000000000000E+00   0.00000000000000000E+00   0.00000000000000000E+00   0.00000000000000000E+00   0.00000000000000000E+00
             0.00000000000000000E+00   0.00000000000000000E+00   0.00000000000000000E+00   0.00000000000000000E+00   0.00000000000000000E+00
             0.00000000000000000E+00   0.00000000000000000E+00   0.00000000000000000E+00   0.00000000000000000E+00   0.00000000000000000E+00
             0.00000000000000000E+00   0.00000000000000000E+00   0.00000000000000000E+00   0.00000000000000000E+00   0.00000000000000000E+00
             0.00000000000000000E+00   6.11554989224890164E+01   6.11554989224890164E+01   6.11554989224890164E+01   6.11554989224890164E+01
             6.11554989224890164E+01   6.11554989224890164E+01   6.11554989224890164E+01   6.11554989224890164E+01   6.11554989224890164E+01
             6.11554989224890164E+01   6.11554989224890164E+01   6.11554989224890164E+01   6.11554989224890164E+01   6.11554989224890164E+01
             6.11554989224890164E+01   6.11554989224890164E+01   6.11554989224890164E+01   6.11554989224890164E+01   6.11554989224890164E+01
             6.11554989224890164E+01   6.11554989224890164E+01   6.11554989224890164E+01   6.11554989224890164E+01   6.11554989224890164E+01
             6.11554989224890164E+01   6.11554989224890164E+01   6.11554989224890164E+01   6.11554989224890164E+01   6.11554989224890164E+01
             6.11554989224890164E+01   6.11554989224890164E+01   6.11554989224890164E+01   6.11554989224890164E+01   6.11554989224890164E+01
             6.11554989224890164E+01   6.11554989224890164E+01   6.11554989224890164E+01   6.11554989224890164E+01   6.11554989224890164E+01
             6.11554989224890164E+01   6.11554989224890164E+01   6.11554989224890164E+01   6.11554989224890164E+01   6.11554989224890164E+01
             6.11554989224890164E+01   6.11554989224890164E+01   6.11554989224890164E+01   0.00000000000000000E+00   0.00000000000000000E+00
             0.00000000000000000E+00   0.00000000000000000E+00   0.00000000000000000E+00   0.00000000000000000E+00   0.00000000000000000E+00
             0.00000000000000000E+00   0.00000000000000000E+00   0.00000000000000000E+00   0.00000000000000000E+00   0.00000000000000000E+00
             0.00000000000000000E+00   0.00000000000000000E+00   0.00000000000000000E+00   0.00000000000000000E+00   0.00000000000000000E+00
             0.00000000000000000E+00   0.00000000000000000E+00   0.00000000000000000E+00   0.00000000000000000E+00   0.00000000000000000E+00
             0.00000000000000000E+00   0.00000000000000000E+00   0.00000000000000000E+00   0.00000000000000000E+00   0.00000000000000000E+00
             0.00000000000000000E+00   0.00000000000000000E+00   0.00000000000000000E+00   0.00000000000000000E+00   0.00000000000000000E+00
 ETA=   81   0.00000000000000000E+00   0.00000000000000000E+00   0.00000000000000000E+00   0.00000000000000000E+00   0.00000000000000000E+00
             0.00000000000000000E+00   0.00000000000000000E+00   0.00000000000000000E+00   0.00000000000000000E+00   0.00000000000000000E+00
             0.00000000000000000E+00   0.00000000000000000E+00   0.00000000000000000E+00   0.00000000000000000E+00   0.00000000000000000E+00
             0.00000000000000000E+00   0.00000000000000000E+00   0.00000000000000000E+00   0.00000000000000000E+00   0.00000000000000000E+00
             0.00000000000000000E+00   0.00000000000000000E+00   6.13214998400770099E+01   6.13214998400770099E+01   6.13214998400770099E+01
             6.13214998400770099E+01   6.13214998400770099E+01   6.13214998400770099E+01   6.13214998400770099E+01   6.13214998400770099E+01
             6.13214998400770099E+01   6.13214998400770099E+01   6.13214998400770099E+01   6.13214998400770099E+01   6.13214998400770099E+01
             6.13214998400770099E+01   6.13214998400770099E+01   6.13214998400770099E+01   6.13214998400770099E+01   6.13214998400770099E+01
             6.13214998400770099E+01   6.13214998400770099E+01   6.13214998400770099E+01   6.13214998400770099E+01   6.13214998400770099E+01
             6.13214998400770099E+01   6.13214998400770099E+01   6.13214998400770099E+01   6.13214998400770099E+01   6.13214998400770099E+01
             6.13214998400770099E+01   6.13214998400770099E+01   6.13214998400770099E+01   6.13214998400770099E+01   6.13214998400770099E+01
             6.13214998400770099E+01   6.13214998400770099E+01   6.13214998400770099E+01   6.13214998400770099E+01   6.13214998400770099E+01
             6.13214998400770099E+01   6.13214998400770099E+01   6.13214998400770099E+01   6.13214998400770099E+01   6.13214998400770099E+01
             6.13214998400770099E+01   6.13214998400770099E+01   6.13214998400770099E+01   6.13214998400770099E+01   0.00000000000000000E+00
             0.00000000000000000E+00   0.00000000000000000E+00   0.00000000000000000E+00   0.00000000000000000E+00   0.00000000000000000E+00
             0.00000000000000000E+00   0.00000000000000000E+00   0.00000000000000000E+00   0.00000000000000000E+00   0.00000000000000000E+00
             0.00000000000000000E+00   0.00000000000000000E+00   0.00000000000000000E+00   0.00000000000000000E+00   0.00000000000000000E+00
             0.00000000000000000E+00   0.00000000000000000E+00   0.00000000000000000E+00   0.00000000000000000E+00   0.00000000000000000E+00
             0.00000000000000000E+00   0.00000000000000000E+00   0.00000000000000000E+00   0.00000000000000000E+00   0.00000000000000000E+00
             0.00000000000000000E+00   0.00000000000000000E+00   0.00000000000000000E+00   0.00000000000000000E+00   0.00000000000000000E+00
 ETA=   82   0.00000000000000000E+00   0.00000000000000000E+00   0.00000000000000000E+00   0.00000000000000000E+00   0.00000000000000000E+00
             0.00000000000000000E+00   0.00000000000000000E+00   0.00000000000000000E+00   0.00000000000000000E+00   0.00000000000000000E+00
             0.00000000000000000E+00   0.00000000000000000E+00   0.00000000000000000E+00   0.00000000000000000E+00   0.00000000000000000E+00
             0.00000000000000000E+00   0.00000000000000000E+00   0.00000000000000000E+00   0.00000000000000000E+00   0.00000000000000000E+00
             0.00000000000000000E+00   0.00000000000000000E+00   0.00000000000000000E+00   6.14875007576649963E+01   6.14875007576649963E+01
             6.14875007576649963E+01   6.14875007576649963E+01   6.14875007576649963E+01   6.14875007576649963E+01   6.14875007576649963E+01
             6.14875007576649963E+01   6.14875007576649963E+01   6.14875007576649963E+01   6.14875007576649963E+01   6.14875007576649963E+01
             6.14875007576649963E+01   6.14875007576649963E+01   6.14875007576649963E+01   6.14875007576649963E+01   6.14875007576649963E+01
             6.14875007576649963E+01   6.14875007576649963E+01   6.14875007576649963E+01   6.14875007576649963E+01   6.14875007576649963E+01
             6.14875007576649963E+01   6.14875007576649963E+01   6.14875007576649963E+01   6.14875007576649963E+01   6.14875007576649963E+01
             6.14875007576649963E+01   6.14875007576649963E+01   6.14875007576649963E+01   6.14875007576649963E+01   6.14875007576649963E+01
             6.14875007576649963E+01   6.14875007576649963E+01   6.14875007576649963E+01   6.14875007576649963E+01   6.14875007576649963E+01
             6.14875007576649963E+01   6.14875007576649963E+01   6.14875007576649963E+01   6.14875007576649963E+01   6.14875007576649963E+01
             6.14875007576649963E+01   6.14875007576649963E+01   6.14875007576649963E+01   6.14875007576649963E+01   0.00000000000000000E+00
             0.00000000000000000E+00   0.00000000000000000E+00   0.00000000000000000E+00   0.00000000000000000E+00   0.00000000000000000E+00
             0.00000000000000000E+00   0.00000000000000000E+00   0.00000000000000000E+00   0.00000000000000000E+00   0.00000000000000000E+00
             0.00000000000000000E+00   0.00000000000000000E+00   0.00000000000000000E+00   0.00000000000000000E+00   0.00000000000000000E+00
             0.00000000000000000E+00   0.00000000000000000E+00   0.00000000000000000E+00   0.00000000000000000E+00   0.00000000000000000E+00
             0.00000000000000000E+00   0.00000000000000000E+00   0.00000000000000000E+00   0.00000000000000000E+00   0.00000000000000000E+00
             0.00000000000000000E+00   0.00000000000000000E+00   0.00000000000000000E+00   0.00000000000000000E+00   0.00000000000000000E+00
 ETA=   83   0.00000000000000000E+00   0.00000000000000000E+00   0.00000000000000000E+00   0.00000000000000000E+00   0.00000000000000000E+00
             0.00000000000000000E+00   0.00000000000000000E+00   0.00000000000000000E+00   0.00000000000000000E+00   0.00000000000000000E+00
             0.00000000000000000E+00   0.00000000000000000E+00   0.00000000000000000E+00   0.00000000000000000E+00   0.00000000000000000E+00
             0.00000000000000000E+00   0.00000000000000000E+00   0.00000000000000000E+00   0.00000000000000000E+00   0.00000000000000000E+00
             0.00000000000000000E+00   0.00000000000000000E+00   0.00000000000000000E+00   0.00000000000000000E+00   6.16535016752529899E+01
             6.16535016752529899E+01   6.16535016752529899E+01   6.16535016752529899E+01   6.16535016752529899E+01   6.16535016752529899E+01
             6.16535016752529899E+01   6.16535016752529899E+01   6.16535016752529899E+01   6.16535016752529899E+01   6.16535016752529899E+01
             6.16535016752529899E+01   6.16535016752529899E+01   6.16535016752529899E+01   6.16535016752529899E+01   6.16535016752529899E+01
             6.16535016752529899E+01   6.16535016752529899E+01   6.16535016752529899E+01   6.16535016752529899E+01   6.16535016752529899E+01
             6.16535016752529899E+01   6.16535016752529899E+01   6.16535016752529899E+01   6.16535016752529899E+01   6.16535016752529899E+01
             6.16535016752529899E+01   6.16535016752529899E+01   6.16535016752529899E+01   6.16535016752529899E+01   6.16535016752529899E+01
             6.16535016752529899E+01   6.16535016752529899E+01   6.16535016752529899E+01   6.16535016752529899E+01   6.16535016752529899E+01
             6.16535016752529899E+01   6.16535016752529899E+01   6.16535016752529899E+01   6.16535016752529899E+01   6.16535016752529899E+01
             6.16535016752529899E+01   6.16535016752529899E+01   6.16535016752529899E+01   6.16535016752529899E+01   0.00000000000000000E+00
             0.00000000000000000E+00   0.00000000000000000E+00   0.00000000000000000E+00   0.00000000000000000E+00   0.00000000000000000E+00
             0.00000000000000000E+00   0.00000000000000000E+00   0.00000000000000000E+00   0.00000000000000000E+00   0.00000000000000000E+00
             0.00000000000000000E+00   0.00000000000000000E+00   0.00000000000000000E+00   0.00000000000000000E+00   0.00000000000000000E+00
             0.00000000000000000E+00   0.00000000000000000E+00   0.00000000000000000E+00   0.00000000000000000E+00   0.00000000000000000E+00
             0.00000000000000000E+00   0.00000000000000000E+00   0.00000000000000000E+00   0.00000000000000000E+00   0.00000000000000000E+00
             0.00000000000000000E+00   0.00000000000000000E+00   0.00000000000000000E+00   0.00000000000000000E+00   0.00000000000000000E+00
 ETA=   84   0.00000000000000000E+00   0.00000000000000000E+00   0.00000000000000000E+00   0.00000000000000000E+00   0.00000000000000000E+00
             0.00000000000000000E+00   0.00000000000000000E+00   0.00000000000000000E+00   0.00000000000000000E+00   0.00000000000000000E+00
             0.00000000000000000E+00   0.00000000000000000E+00   0.00000000000000000E+00   0.00000000000000000E+00   0.00000000000000000E+00
             0.00000000000000000E+00   0.00000000000000000E+00   0.00000000000000000E+00   0.00000000000000000E+00   0.00000000000000000E+00
             0.00000000000000000E+00   0.00000000000000000E+00   0.00000000000000000E+00   0.00000000000000000E+00   0.00000000000000000E+00
             6.18195025928409763E+01   6.18195025928409763E+01   6.18195025928409763E+01   6.18195025928409763E+01   6.18195025928409763E+01
             6.18195025928409763E+01   6.18195025928409763E+01   6.18195025928409763E+01   6.18195025928409763E+01   6.18195025928409763E+01
             6.18195025928409763E+01   6.18195025928409763E+01   6.18195025928409763E+01   6.18195025928409763E+01   6.18195025928409763E+01
             6.18195025928409763E+01   6.18195025928409763E+01   6.18195025928409763E+01   6.18195025928409763E+01   6.18195025928409763E+01
             6.18195025928409763E+01   6.18195025928409763E+01   6.18195025928409763E+01   6.18195025928409763E+01   6.18195025928409763E+01
             6.18195025928409763E+01   6.18195025928409763E+01   6.18195025928409763E+01   6.18195025928409763E+01   6.18195025928409763E+01
             6.18195025928409763E+01   6.18195025928409763E+01   6.18195025928409763E+01   6.18195025928409763E+01   6.18195025928409763E+01
             6.18195025928409763E+01   6.18195025928409763E+01   6.18195025928409763E+01   6.18195025928409763E+01   6.18195025928409763E+01
             6.18195025928409763E+01   6.18195025928409763E+01   6.18195025928409763E+01   0.00000000000000000E+00   0.00000000000000000E+00
             0.00000000000000000E+00   0.00000000000000000E+00   0.00000000000000000E+00   0.00000000000000000E+00   0.00000000000000000E+00
             0.00000000000000000E+00   0.00000000000000000E+00   0.00000000000000000E+00   0.00000000000000000E+00   0.00000000000000000E+00
             0.00000000000000000E+00   0.00000000000000000E+00   0.00000000000000000E+00   0.00000000000000000E+00   0.00000000000000000E+00
             0.00000000000000000E+00   0.00000000000000000E+00   0.00000000000000000E+00   0.00000000000000000E+00   0.00000000000000000E+00
             0.00000000000000000E+00   0.00000000000000000E+00   0.00000000000000000E+00   0.00000000000000000E+00   0.00000000000000000E+00
             0.00000000000000000E+00   0.00000000000000000E+00   0.00000000000000000E+00   0.00000000000000000E+00   0.00000000000000000E+00
 ETA=   85   0.00000000000000000E+00   0.00000000000000000E+00   0.00000000000000000E+00   0.00000000000000000E+00   0.00000000000000000E+00
             0.00000000000000000E+00   0.00000000000000000E+00   0.00000000000000000E+00   0.00000000000000000E+00   0.00000000000000000E+00
             0.00000000000000000E+00   0.00000000000000000E+00   0.00000000000000000E+00   0.00000000000000000E+00   0.00000000000000000E+00
             0.00000000000000000E+00   0.00000000000000000E+00   0.00000000000000000E+00   0.00000000000000000E+00   0.00000000000000000E+00
             0.00000000000000000E+00   0.00000000000000000E+00   0.00000000000000000E+00   0.00000000000000000E+00   0.00000000000000000E+00
             0.00000000000000000E+00   6.19855035104289698E+01   6.19855035104289698E+01   6.19855035104289698E+01   6.19855035104289698E+01
             6.19855035104289698E+01   6.19855035104289698E+01   6.19855035104289698E+01   6.19855035104289698E+01   6.19855035104289698E+01
             6.19855035104289698E+01   6.19855035104289698E+01   6.19855035104289698E+01   6.19855035104289698E+01   6.19855035104289698E+01
             6.19855035104289698E+01   6.19855035104289698E+01   6.19855035104289698E+01   6.19855035104289698E+01   6.19855035104289698E+01
             6.19855035104289698E+01   6.19855035104289698E+01   6.19855035104289698E+01   6.19855035104289698E+01   6.19855035104289698E+01
             6.19855035104289698E+01   6.19855035104289698E+01   6.19855035104289698E+01   6.19855035104289698E+01   6.19855035104289698E+01
             6.19855035104289698E+01   6.19855035104289698E+01   6.19855035104289698E+01   6.19855035104289698E+01   6.19855035104289698E+01
             6.19855035104289698E+01   6.19855035104289698E+01   6.19855035104289698E+01   6.19855035104289698E+01   6.19855035104289698E+01
             6.19855035104289698E+01   6.19855035104289698E+01   6.19855035104289698E+01   0.00000000000000000E+00   0.00000000000000000E+00
             0.00000000000000000E+00   0.00000000000000000E+00   0.00000000000000000E+00   0.00000000000000000E+00   0.00000000000000000E+00
             0.00000000000000000E+00   0.00000000000000000E+00   0.00000000000000000E+00   0.00000000000000000E+00   0.00000000000000000E+00
             0.00000000000000000E+00   0.00000000000000000E+00   0.00000000000000000E+00   0.00000000000000000E+00   0.00000000000000000E+00
             0.00000000000000000E+00   0.00000000000000000E+00   0.00000000000000000E+00   0.00000000000000000E+00   0.00000000000000000E+00
             0.00000000000000000E+00   0.00000000000000000E+00   0.00000000000000000E+00   0.00000000000000000E+00   0.00000000000000000E+00
             0.00000000000000000E+00   0.00000000000000000E+00   0.00000000000000000E+00   0.00000000000000000E+00   0.00000000000000000E+00
 ETA=   86   0.00000000000000000E+00   0.00000000000000000E+00   0.00000000000000000E+00   0.00000000000000000E+00   0.00000000000000000E+00
             0.00000000000000000E+00   0.00000000000000000E+00   0.00000000000000000E+00   0.00000000000000000E+00   0.00000000000000000E+00
             0.00000000000000000E+00   0.00000000000000000E+00   0.00000000000000000E+00   0.00000000000000000E+00   0.00000000000000000E+00
             0.00000000000000000E+00   0.00000000000000000E+00   0.00000000000000000E+00   0.00000000000000000E+00   0.00000000000000000E+00
             0.00000000000000000E+00   0.00000000000000000E+00   0.00000000000000000E+00   0.00000000000000000E+00   0.00000000000000000E+00
             0.00000000000000000E+00   0.00000000000000000E+00   6.21515044280169562E+01   6.21515044280169562E+01   6.21515044280169562E+01
             6.21515044280169562E+01   6.21515044280169562E+01   6.21515044280169562E+01   6.21515044280169562E+01   6.21515044280169562E+01
             6.21515044280169562E+01   6.21515044280169562E+01   6.21515044280169562E+01   6.21515044280169562E+01   6.21515044280169562E+01
             6.21515044280169562E+01   6.21515044280169562E+01   6.21515044280169562E+01   6.21515044280169562E+01   6.21515044280169562E+01
             6.21515044280169562E+01   6.21515044280169562E+01   6.21515044280169562E+01   6.21515044280169562E+01   6.21515044280169562E+01
             6.21515044280169562E+01   6.21515044280169562E+01   6.21515044280169562E+01   6.21515044280169562E+01   6.21515044280169562E+01
             6.21515044280169562E+01   6.21515044280169562E+01   6.21515044280169562E+01   6.21515044280169562E+01   6.21515044280169562E+01
             6.21515044280169562E+01   6.21515044280169562E+01   6.21515044280169562E+01   6.21515044280169562E+01   6.21515044280169562E+01
             6.21515044280169562E+01   6.21515044280169562E+01   6.21515044280169562E+01   0.00000000000000000E+00   0.00000000000000000E+00
             0.00000000000000000E+00   0.00000000000000000E+00   0.00000000000000000E+00   0.00000000000000000E+00   0.00000000000000000E+00
             0.00000000000000000E+00   0.00000000000000000E+00   0.00000000000000000E+00   0.00000000000000000E+00   0.00000000000000000E+00
             0.00000000000000000E+00   0.00000000000000000E+00   0.00000000000000000E+00   0.00000000000000000E+00   0.00000000000000000E+00
             0.00000000000000000E+00   0.00000000000000000E+00   0.00000000000000000E+00   0.00000000000000000E+00   0.00000000000000000E+00
             0.00000000000000000E+00   0.00000000000000000E+00   0.00000000000000000E+00   0.00000000000000000E+00   0.00000000000000000E+00
             0.00000000000000000E+00   0.00000000000000000E+00   0.00000000000000000E+00   0.00000000000000000E+00   0.00000000000000000E+00
